1



                                 *********************************************

                                    NUMERICAL ELECTROMAGNETICS CODE (NEC-2D)

                                 *********************************************




                                     - - - - COMMENTS - - - -


                          All Dimensions in Metres                                                   
                                                                                                     




                                 - - - STRUCTURE SPECIFICATION - - -

                                     COORDINATES MUST BE INPUT IN
                                     METERS OR BE SCALED TO METERS
                                     BEFORE STRUCTURE INPUT IS ENDED


  WIRE                                                                               NO. OF    FIRST  LAST     TAG
  NO.        X1         Y1         Z1          X2         Y2         Z2      RADIUS   SEG.     SEG.   SEG.     NO.
     1    0.00000   -0.01371    0.00000     0.00000    0.01371    0.00000    0.00080     21        1    21       1
     2    0.01193   -0.01288    0.00000     0.01193    0.01288    0.00000    0.00080     21       22    42       2
     3    0.01788   -0.01154    0.00000     0.01788    0.01154    0.00000    0.00080     21       43    63       3
     4    0.03128   -0.01123    0.00000     0.03128    0.01123    0.00000    0.00080     21       64    84       4
     5    0.05179   -0.01064    0.00000     0.05179    0.01064    0.00000    0.00080     21       85   105       5
     6    0.06961   -0.01073    0.00000     0.06961    0.01073    0.00000    0.00080     21      106   126       6
     7    0.08334   -0.00992    0.00000     0.08334    0.00992    0.00000    0.00080     21      127   147       7
     8    0.09692   -0.00943    0.00000     0.09692    0.00943    0.00000    0.00080     21      148   168       8
     9    0.10760   -0.00998    0.00000     0.10760    0.00998    0.00000    0.00080     21      169   189       9
    10    0.12026   -0.00996    0.00000     0.12026    0.00996    0.00000    0.00080     21      190   210      10
    11    0.13275   -0.00995    0.00000     0.13275    0.00995    0.00000    0.00080     21      211   231      11
    12    0.14765   -0.01008    0.00000     0.14765    0.01008    0.00000    0.00080     21      232   252      12

   TOTAL SEGMENTS USED=  252     NO. SEG. IN A SYMMETRIC CELL=  252     SYMMETRY FLAG=  0


         - MULTIPLE WIRE JUNCTIONS -
 JUNCTION    SEGMENTS  (- FOR END 1, + FOR END 2)
  NONE




                                 - - - - SEGMENTATION DATA - - - -

                                        COORDINATES IN METERS

                         I+ AND I- INDICATE THE SEGMENTS BEFORE AND AFTER I


  SEG.   COORDINATES OF SEG. CENTER     SEG.     ORIENTATION ANGLES    WIRE    CONNECTION DATA   TAG
  NO.       X         Y         Z       LENGTH     ALPHA     BETA      RADIUS    I-   I    I+    NO.
     1   0.00000  -0.01306   0.00000   0.00131    0.00000  90.00000   0.00080     0    1    2      1
     2   0.00000  -0.01175   0.00000   0.00131    0.00000  90.00000   0.00080     1    2    3      1
     3   0.00000  -0.01045   0.00000   0.00131    0.00000  90.00000   0.00080     2    3    4      1
     4   0.00000  -0.00914   0.00000   0.00131    0.00000  90.00000   0.00080     3    4    5      1
     5   0.00000  -0.00784   0.00000   0.00131    0.00000  90.00000   0.00080     4    5    6      1
     6   0.00000  -0.00653   0.00000   0.00131    0.00000  90.00000   0.00080     5    6    7      1
     7   0.00000  -0.00522   0.00000   0.00131    0.00000  90.00000   0.00080     6    7    8      1
     8   0.00000  -0.00392   0.00000   0.00131    0.00000  90.00000   0.00080     7    8    9      1
     9   0.00000  -0.00261   0.00000   0.00131    0.00000  90.00000   0.00080     8    9   10      1
    10   0.00000  -0.00131   0.00000   0.00131    0.00000  90.00000   0.00080     9   10   11      1
    11   0.00000   0.00000   0.00000   0.00131    0.00000  90.00000   0.00080    10   11   12      1
    12   0.00000   0.00131   0.00000   0.00131    0.00000  90.00000   0.00080    11   12   13      1
    13   0.00000   0.00261   0.00000   0.00131    0.00000  90.00000   0.00080    12   13   14      1
    14   0.00000   0.00392   0.00000   0.00131    0.00000  90.00000   0.00080    13   14   15      1
    15   0.00000   0.00522   0.00000   0.00131    0.00000  90.00000   0.00080    14   15   16      1
    16   0.00000   0.00653   0.00000   0.00131    0.00000  90.00000   0.00080    15   16   17      1
    17   0.00000   0.00784   0.00000   0.00131    0.00000  90.00000   0.00080    16   17   18      1
    18   0.00000   0.00914   0.00000   0.00131    0.00000  90.00000   0.00080    17   18   19      1
    19   0.00000   0.01045   0.00000   0.00131    0.00000  90.00000   0.00080    18   19   20      1
    20   0.00000   0.01175   0.00000   0.00131    0.00000  90.00000   0.00080    19   20   21      1
    21   0.00000   0.01306   0.00000   0.00131    0.00000  90.00000   0.00080    20   21    0      1
    22   0.01193  -0.01227   0.00000   0.00123    0.00000  90.00000   0.00080     0   22   23      2
    23   0.01193  -0.01104   0.00000   0.00123    0.00000  90.00000   0.00080    22   23   24      2
    24   0.01193  -0.00981   0.00000   0.00123    0.00000  90.00000   0.00080    23   24   25      2
    25   0.01193  -0.00859   0.00000   0.00123    0.00000  90.00000   0.00080    24   25   26      2
    26   0.01193  -0.00736   0.00000   0.00123    0.00000  90.00000   0.00080    25   26   27      2
    27   0.01193  -0.00613   0.00000   0.00123    0.00000  90.00000   0.00080    26   27   28      2
    28   0.01193  -0.00491   0.00000   0.00123    0.00000  90.00000   0.00080    27   28   29      2
    29   0.01193  -0.00368   0.00000   0.00123    0.00000  90.00000   0.00080    28   29   30      2
    30   0.01193  -0.00245   0.00000   0.00123    0.00000  90.00000   0.00080    29   30   31      2
    31   0.01193  -0.00123   0.00000   0.00123    0.00000  90.00000   0.00080    30   31   32      2
    32   0.01193   0.00000   0.00000   0.00123    0.00000  90.00000   0.00080    31   32   33      2
    33   0.01193   0.00123   0.00000   0.00123    0.00000  90.00000   0.00080    32   33   34      2
    34   0.01193   0.00245   0.00000   0.00123    0.00000  90.00000   0.00080    33   34   35      2
    35   0.01193   0.00368   0.00000   0.00123    0.00000  90.00000   0.00080    34   35   36      2
    36   0.01193   0.00491   0.00000   0.00123    0.00000  90.00000   0.00080    35   36   37      2
    37   0.01193   0.00613   0.00000   0.00123    0.00000  90.00000   0.00080    36   37   38      2
    38   0.01193   0.00736   0.00000   0.00123    0.00000  90.00000   0.00080    37   38   39      2
    39   0.01193   0.00859   0.00000   0.00123    0.00000  90.00000   0.00080    38   39   40      2
    40   0.01193   0.00981   0.00000   0.00123    0.00000  90.00000   0.00080    39   40   41      2
    41   0.01193   0.01104   0.00000   0.00123    0.00000  90.00000   0.00080    40   41   42      2
    42   0.01193   0.01227   0.00000   0.00123    0.00000  90.00000   0.00080    41   42    0      2
    43   0.01788  -0.01099   0.00000   0.00110    0.00000  90.00000   0.00080     0   43   44      3
    44   0.01788  -0.00989   0.00000   0.00110    0.00000  90.00000   0.00080    43   44   45      3
    45   0.01788  -0.00879   0.00000   0.00110    0.00000  90.00000   0.00080    44   45   46      3
    46   0.01788  -0.00769   0.00000   0.00110    0.00000  90.00000   0.00080    45   46   47      3
    47   0.01788  -0.00659   0.00000   0.00110    0.00000  90.00000   0.00080    46   47   48      3
    48   0.01788  -0.00550   0.00000   0.00110    0.00000  90.00000   0.00080    47   48   49      3
    49   0.01788  -0.00440   0.00000   0.00110    0.00000  90.00000   0.00080    48   49   50      3
    50   0.01788  -0.00330   0.00000   0.00110    0.00000  90.00000   0.00080    49   50   51      3
    51   0.01788  -0.00220   0.00000   0.00110    0.00000  90.00000   0.00080    50   51   52      3
    52   0.01788  -0.00110   0.00000   0.00110    0.00000  90.00000   0.00080    51   52   53      3
    53   0.01788   0.00000   0.00000   0.00110    0.00000  90.00000   0.00080    52   53   54      3
    54   0.01788   0.00110   0.00000   0.00110    0.00000  90.00000   0.00080    53   54   55      3
    55   0.01788   0.00220   0.00000   0.00110    0.00000  90.00000   0.00080    54   55   56      3
    56   0.01788   0.00330   0.00000   0.00110    0.00000  90.00000   0.00080    55   56   57      3
    57   0.01788   0.00440   0.00000   0.00110    0.00000  90.00000   0.00080    56   57   58      3
    58   0.01788   0.00550   0.00000   0.00110    0.00000  90.00000   0.00080    57   58   59      3
    59   0.01788   0.00659   0.00000   0.00110    0.00000  90.00000   0.00080    58   59   60      3
    60   0.01788   0.00769   0.00000   0.00110    0.00000  90.00000   0.00080    59   60   61      3
    61   0.01788   0.00879   0.00000   0.00110    0.00000  90.00000   0.00080    60   61   62      3
    62   0.01788   0.00989   0.00000   0.00110    0.00000  90.00000   0.00080    61   62   63      3
    63   0.01788   0.01099   0.00000   0.00110    0.00000  90.00000   0.00080    62   63    0      3
    64   0.03128  -0.01069   0.00000   0.00107    0.00000  90.00000   0.00080     0   64   65      4
    65   0.03128  -0.00962   0.00000   0.00107    0.00000  90.00000   0.00080    64   65   66      4
    66   0.03128  -0.00855   0.00000   0.00107    0.00000  90.00000   0.00080    65   66   67      4
    67   0.03128  -0.00749   0.00000   0.00107    0.00000  90.00000   0.00080    66   67   68      4
    68   0.03128  -0.00642   0.00000   0.00107    0.00000  90.00000   0.00080    67   68   69      4
    69   0.03128  -0.00535   0.00000   0.00107    0.00000  90.00000   0.00080    68   69   70      4
    70   0.03128  -0.00428   0.00000   0.00107    0.00000  90.00000   0.00080    69   70   71      4
    71   0.03128  -0.00321   0.00000   0.00107    0.00000  90.00000   0.00080    70   71   72      4
    72   0.03128  -0.00214   0.00000   0.00107    0.00000  90.00000   0.00080    71   72   73      4
    73   0.03128  -0.00107   0.00000   0.00107    0.00000  90.00000   0.00080    72   73   74      4
    74   0.03128   0.00000   0.00000   0.00107    0.00000  90.00000   0.00080    73   74   75      4
    75   0.03128   0.00107   0.00000   0.00107    0.00000  90.00000   0.00080    74   75   76      4
    76   0.03128   0.00214   0.00000   0.00107    0.00000  90.00000   0.00080    75   76   77      4
    77   0.03128   0.00321   0.00000   0.00107    0.00000  90.00000   0.00080    76   77   78      4
    78   0.03128   0.00428   0.00000   0.00107    0.00000  90.00000   0.00080    77   78   79      4
    79   0.03128   0.00535   0.00000   0.00107    0.00000  90.00000   0.00080    78   79   80      4
    80   0.03128   0.00642   0.00000   0.00107    0.00000  90.00000   0.00080    79   80   81      4
    81   0.03128   0.00749   0.00000   0.00107    0.00000  90.00000   0.00080    80   81   82      4
    82   0.03128   0.00855   0.00000   0.00107    0.00000  90.00000   0.00080    81   82   83      4
    83   0.03128   0.00962   0.00000   0.00107    0.00000  90.00000   0.00080    82   83   84      4
    84   0.03128   0.01069   0.00000   0.00107    0.00000  90.00000   0.00080    83   84    0      4
    85   0.05179  -0.01013   0.00000   0.00101    0.00000  90.00000   0.00080     0   85   86      5
    86   0.05179  -0.00912   0.00000   0.00101    0.00000  90.00000   0.00080    85   86   87      5
    87   0.05179  -0.00810   0.00000   0.00101    0.00000  90.00000   0.00080    86   87   88      5
    88   0.05179  -0.00709   0.00000   0.00101    0.00000  90.00000   0.00080    87   88   89      5
    89   0.05179  -0.00608   0.00000   0.00101    0.00000  90.00000   0.00080    88   89   90      5
    90   0.05179  -0.00506   0.00000   0.00101    0.00000  90.00000   0.00080    89   90   91      5
    91   0.05179  -0.00405   0.00000   0.00101    0.00000  90.00000   0.00080    90   91   92      5
    92   0.05179  -0.00304   0.00000   0.00101    0.00000  90.00000   0.00080    91   92   93      5
    93   0.05179  -0.00203   0.00000   0.00101    0.00000  90.00000   0.00080    92   93   94      5
    94   0.05179  -0.00101   0.00000   0.00101    0.00000  90.00000   0.00080    93   94   95      5
    95   0.05179   0.00000   0.00000   0.00101    0.00000  90.00000   0.00080    94   95   96      5
    96   0.05179   0.00101   0.00000   0.00101    0.00000  90.00000   0.00080    95   96   97      5
    97   0.05179   0.00203   0.00000   0.00101    0.00000  90.00000   0.00080    96   97   98      5
    98   0.05179   0.00304   0.00000   0.00101    0.00000  90.00000   0.00080    97   98   99      5
    99   0.05179   0.00405   0.00000   0.00101    0.00000  90.00000   0.00080    98   99  100      5
   100   0.05179   0.00506   0.00000   0.00101    0.00000  90.00000   0.00080    99  100  101      5
   101   0.05179   0.00608   0.00000   0.00101    0.00000  90.00000   0.00080   100  101  102      5
   102   0.05179   0.00709   0.00000   0.00101    0.00000  90.00000   0.00080   101  102  103      5
   103   0.05179   0.00810   0.00000   0.00101    0.00000  90.00000   0.00080   102  103  104      5
   104   0.05179   0.00912   0.00000   0.00101    0.00000  90.00000   0.00080   103  104  105      5
   105   0.05179   0.01013   0.00000   0.00101    0.00000  90.00000   0.00080   104  105    0      5
   106   0.06961  -0.01022   0.00000   0.00102    0.00000  90.00000   0.00080     0  106  107      6
   107   0.06961  -0.00920   0.00000   0.00102    0.00000  90.00000   0.00080   106  107  108      6
   108   0.06961  -0.00817   0.00000   0.00102    0.00000  90.00000   0.00080   107  108  109      6
   109   0.06961  -0.00715   0.00000   0.00102    0.00000  90.00000   0.00080   108  109  110      6
   110   0.06961  -0.00613   0.00000   0.00102    0.00000  90.00000   0.00080   109  110  111      6
   111   0.06961  -0.00511   0.00000   0.00102    0.00000  90.00000   0.00080   110  111  112      6
   112   0.06961  -0.00409   0.00000   0.00102    0.00000  90.00000   0.00080   111  112  113      6
   113   0.06961  -0.00307   0.00000   0.00102    0.00000  90.00000   0.00080   112  113  114      6
   114   0.06961  -0.00204   0.00000   0.00102    0.00000  90.00000   0.00080   113  114  115      6
   115   0.06961  -0.00102   0.00000   0.00102    0.00000  90.00000   0.00080   114  115  116      6
   116   0.06961   0.00000   0.00000   0.00102    0.00000  90.00000   0.00080   115  116  117      6
   117   0.06961   0.00102   0.00000   0.00102    0.00000  90.00000   0.00080   116  117  118      6
   118   0.06961   0.00204   0.00000   0.00102    0.00000  90.00000   0.00080   117  118  119      6
   119   0.06961   0.00307   0.00000   0.00102    0.00000  90.00000   0.00080   118  119  120      6
   120   0.06961   0.00409   0.00000   0.00102    0.00000  90.00000   0.00080   119  120  121      6
   121   0.06961   0.00511   0.00000   0.00102    0.00000  90.00000   0.00080   120  121  122      6
   122   0.06961   0.00613   0.00000   0.00102    0.00000  90.00000   0.00080   121  122  123      6
   123   0.06961   0.00715   0.00000   0.00102    0.00000  90.00000   0.00080   122  123  124      6
   124   0.06961   0.00817   0.00000   0.00102    0.00000  90.00000   0.00080   123  124  125      6
   125   0.06961   0.00920   0.00000   0.00102    0.00000  90.00000   0.00080   124  125  126      6
   126   0.06961   0.01022   0.00000   0.00102    0.00000  90.00000   0.00080   125  126    0      6
   127   0.08334  -0.00944   0.00000   0.00094    0.00000  90.00000   0.00080     0  127  128      7
   128   0.08334  -0.00850   0.00000   0.00094    0.00000  90.00000   0.00080   127  128  129      7
   129   0.08334  -0.00756   0.00000   0.00094    0.00000  90.00000   0.00080   128  129  130      7
   130   0.08334  -0.00661   0.00000   0.00094    0.00000  90.00000   0.00080   129  130  131      7
   131   0.08334  -0.00567   0.00000   0.00094    0.00000  90.00000   0.00080   130  131  132      7
   132   0.08334  -0.00472   0.00000   0.00094    0.00000  90.00000   0.00080   131  132  133      7
   133   0.08334  -0.00378   0.00000   0.00094    0.00000  90.00000   0.00080   132  133  134      7
   134   0.08334  -0.00283   0.00000   0.00094    0.00000  90.00000   0.00080   133  134  135      7
   135   0.08334  -0.00189   0.00000   0.00094    0.00000  90.00000   0.00080   134  135  136      7
   136   0.08334  -0.00094   0.00000   0.00094    0.00000  90.00000   0.00080   135  136  137      7
   137   0.08334   0.00000   0.00000   0.00094    0.00000  90.00000   0.00080   136  137  138      7
   138   0.08334   0.00094   0.00000   0.00094    0.00000  90.00000   0.00080   137  138  139      7
   139   0.08334   0.00189   0.00000   0.00094    0.00000  90.00000   0.00080   138  139  140      7
   140   0.08334   0.00283   0.00000   0.00094    0.00000  90.00000   0.00080   139  140  141      7
   141   0.08334   0.00378   0.00000   0.00094    0.00000  90.00000   0.00080   140  141  142      7
   142   0.08334   0.00472   0.00000   0.00094    0.00000  90.00000   0.00080   141  142  143      7
   143   0.08334   0.00567   0.00000   0.00094    0.00000  90.00000   0.00080   142  143  144      7
   144   0.08334   0.00661   0.00000   0.00094    0.00000  90.00000   0.00080   143  144  145      7
   145   0.08334   0.00756   0.00000   0.00094    0.00000  90.00000   0.00080   144  145  146      7
   146   0.08334   0.00850   0.00000   0.00094    0.00000  90.00000   0.00080   145  146  147      7
   147   0.08334   0.00944   0.00000   0.00094    0.00000  90.00000   0.00080   146  147    0      7
   148   0.09692  -0.00898   0.00000   0.00090    0.00000  90.00000   0.00080     0  148  149      8
   149   0.09692  -0.00808   0.00000   0.00090    0.00000  90.00000   0.00080   148  149  150      8
   150   0.09692  -0.00718   0.00000   0.00090    0.00000  90.00000   0.00080   149  150  151      8
   151   0.09692  -0.00629   0.00000   0.00090    0.00000  90.00000   0.00080   150  151  152      8
   152   0.09692  -0.00539   0.00000   0.00090    0.00000  90.00000   0.00080   151  152  153      8
   153   0.09692  -0.00449   0.00000   0.00090    0.00000  90.00000   0.00080   152  153  154      8
   154   0.09692  -0.00359   0.00000   0.00090    0.00000  90.00000   0.00080   153  154  155      8
   155   0.09692  -0.00269   0.00000   0.00090    0.00000  90.00000   0.00080   154  155  156      8
   156   0.09692  -0.00180   0.00000   0.00090    0.00000  90.00000   0.00080   155  156  157      8
   157   0.09692  -0.00090   0.00000   0.00090    0.00000  90.00000   0.00080   156  157  158      8
   158   0.09692   0.00000   0.00000   0.00090    0.00000  90.00000   0.00080   157  158  159      8
   159   0.09692   0.00090   0.00000   0.00090    0.00000  90.00000   0.00080   158  159  160      8
   160   0.09692   0.00180   0.00000   0.00090    0.00000  90.00000   0.00080   159  160  161      8
   161   0.09692   0.00269   0.00000   0.00090    0.00000  90.00000   0.00080   160  161  162      8
   162   0.09692   0.00359   0.00000   0.00090    0.00000  90.00000   0.00080   161  162  163      8
   163   0.09692   0.00449   0.00000   0.00090    0.00000  90.00000   0.00080   162  163  164      8
   164   0.09692   0.00539   0.00000   0.00090    0.00000  90.00000   0.00080   163  164  165      8
   165   0.09692   0.00629   0.00000   0.00090    0.00000  90.00000   0.00080   164  165  166      8
   166   0.09692   0.00718   0.00000   0.00090    0.00000  90.00000   0.00080   165  166  167      8
   167   0.09692   0.00808   0.00000   0.00090    0.00000  90.00000   0.00080   166  167  168      8
   168   0.09692   0.00898   0.00000   0.00090    0.00000  90.00000   0.00080   167  168    0      8
   169   0.10760  -0.00951   0.00000   0.00095    0.00000  90.00000   0.00080     0  169  170      9
   170   0.10760  -0.00856   0.00000   0.00095    0.00000  90.00000   0.00080   169  170  171      9
   171   0.10760  -0.00760   0.00000   0.00095    0.00000  90.00000   0.00080   170  171  172      9
   172   0.10760  -0.00665   0.00000   0.00095    0.00000  90.00000   0.00080   171  172  173      9
   173   0.10760  -0.00570   0.00000   0.00095    0.00000  90.00000   0.00080   172  173  174      9
   174   0.10760  -0.00475   0.00000   0.00095    0.00000  90.00000   0.00080   173  174  175      9
   175   0.10760  -0.00380   0.00000   0.00095    0.00000  90.00000   0.00080   174  175  176      9
   176   0.10760  -0.00285   0.00000   0.00095    0.00000  90.00000   0.00080   175  176  177      9
   177   0.10760  -0.00190   0.00000   0.00095    0.00000  90.00000   0.00080   176  177  178      9
   178   0.10760  -0.00095   0.00000   0.00095    0.00000  90.00000   0.00080   177  178  179      9
   179   0.10760   0.00000   0.00000   0.00095    0.00000  90.00000   0.00080   178  179  180      9
   180   0.10760   0.00095   0.00000   0.00095    0.00000  90.00000   0.00080   179  180  181      9
   181   0.10760   0.00190   0.00000   0.00095    0.00000  90.00000   0.00080   180  181  182      9
   182   0.10760   0.00285   0.00000   0.00095    0.00000  90.00000   0.00080   181  182  183      9
   183   0.10760   0.00380   0.00000   0.00095    0.00000  90.00000   0.00080   182  183  184      9
   184   0.10760   0.00475   0.00000   0.00095    0.00000  90.00000   0.00080   183  184  185      9
   185   0.10760   0.00570   0.00000   0.00095    0.00000  90.00000   0.00080   184  185  186      9
   186   0.10760   0.00665   0.00000   0.00095    0.00000  90.00000   0.00080   185  186  187      9
   187   0.10760   0.00760   0.00000   0.00095    0.00000  90.00000   0.00080   186  187  188      9
   188   0.10760   0.00856   0.00000   0.00095    0.00000  90.00000   0.00080   187  188  189      9
   189   0.10760   0.00951   0.00000   0.00095    0.00000  90.00000   0.00080   188  189    0      9
   190   0.12026  -0.00949   0.00000   0.00095    0.00000  90.00000   0.00080     0  190  191     10
   191   0.12026  -0.00854   0.00000   0.00095    0.00000  90.00000   0.00080   190  191  192     10
   192   0.12026  -0.00759   0.00000   0.00095    0.00000  90.00000   0.00080   191  192  193     10
   193   0.12026  -0.00664   0.00000   0.00095    0.00000  90.00000   0.00080   192  193  194     10
   194   0.12026  -0.00569   0.00000   0.00095    0.00000  90.00000   0.00080   193  194  195     10
   195   0.12026  -0.00474   0.00000   0.00095    0.00000  90.00000   0.00080   194  195  196     10
   196   0.12026  -0.00379   0.00000   0.00095    0.00000  90.00000   0.00080   195  196  197     10
   197   0.12026  -0.00285   0.00000   0.00095    0.00000  90.00000   0.00080   196  197  198     10
   198   0.12026  -0.00190   0.00000   0.00095    0.00000  90.00000   0.00080   197  198  199     10
   199   0.12026  -0.00095   0.00000   0.00095    0.00000  90.00000   0.00080   198  199  200     10
   200   0.12026   0.00000   0.00000   0.00095    0.00000  90.00000   0.00080   199  200  201     10
   201   0.12026   0.00095   0.00000   0.00095    0.00000  90.00000   0.00080   200  201  202     10
   202   0.12026   0.00190   0.00000   0.00095    0.00000  90.00000   0.00080   201  202  203     10
   203   0.12026   0.00285   0.00000   0.00095    0.00000  90.00000   0.00080   202  203  204     10
   204   0.12026   0.00379   0.00000   0.00095    0.00000  90.00000   0.00080   203  204  205     10
   205   0.12026   0.00474   0.00000   0.00095    0.00000  90.00000   0.00080   204  205  206     10
   206   0.12026   0.00569   0.00000   0.00095    0.00000  90.00000   0.00080   205  206  207     10
   207   0.12026   0.00664   0.00000   0.00095    0.00000  90.00000   0.00080   206  207  208     10
   208   0.12026   0.00759   0.00000   0.00095    0.00000  90.00000   0.00080   207  208  209     10
   209   0.12026   0.00854   0.00000   0.00095    0.00000  90.00000   0.00080   208  209  210     10
   210   0.12026   0.00949   0.00000   0.00095    0.00000  90.00000   0.00080   209  210    0     10
   211   0.13275  -0.00948   0.00000   0.00095    0.00000  90.00000   0.00080     0  211  212     11
   212   0.13275  -0.00853   0.00000   0.00095    0.00000  90.00000   0.00080   211  212  213     11
   213   0.13275  -0.00758   0.00000   0.00095    0.00000  90.00000   0.00080   212  213  214     11
   214   0.13275  -0.00663   0.00000   0.00095    0.00000  90.00000   0.00080   213  214  215     11
   215   0.13275  -0.00569   0.00000   0.00095    0.00000  90.00000   0.00080   214  215  216     11
   216   0.13275  -0.00474   0.00000   0.00095    0.00000  90.00000   0.00080   215  216  217     11
   217   0.13275  -0.00379   0.00000   0.00095    0.00000  90.00000   0.00080   216  217  218     11
   218   0.13275  -0.00284   0.00000   0.00095    0.00000  90.00000   0.00080   217  218  219     11
   219   0.13275  -0.00190   0.00000   0.00095    0.00000  90.00000   0.00080   218  219  220     11
   220   0.13275  -0.00095   0.00000   0.00095    0.00000  90.00000   0.00080   219  220  221     11
   221   0.13275   0.00000   0.00000   0.00095    0.00000  90.00000   0.00080   220  221  222     11
   222   0.13275   0.00095   0.00000   0.00095    0.00000  90.00000   0.00080   221  222  223     11
   223   0.13275   0.00190   0.00000   0.00095    0.00000  90.00000   0.00080   222  223  224     11
   224   0.13275   0.00284   0.00000   0.00095    0.00000  90.00000   0.00080   223  224  225     11
   225   0.13275   0.00379   0.00000   0.00095    0.00000  90.00000   0.00080   224  225  226     11
   226   0.13275   0.00474   0.00000   0.00095    0.00000  90.00000   0.00080   225  226  227     11
   227   0.13275   0.00569   0.00000   0.00095    0.00000  90.00000   0.00080   226  227  228     11
   228   0.13275   0.00663   0.00000   0.00095    0.00000  90.00000   0.00080   227  228  229     11
   229   0.13275   0.00758   0.00000   0.00095    0.00000  90.00000   0.00080   228  229  230     11
   230   0.13275   0.00853   0.00000   0.00095    0.00000  90.00000   0.00080   229  230  231     11
   231   0.13275   0.00948   0.00000   0.00095    0.00000  90.00000   0.00080   230  231    0     11
   232   0.14765  -0.00960   0.00000   0.00096    0.00000  90.00000   0.00080     0  232  233     12
   233   0.14765  -0.00864   0.00000   0.00096    0.00000  90.00000   0.00080   232  233  234     12
   234   0.14765  -0.00768   0.00000   0.00096    0.00000  90.00000   0.00080   233  234  235     12
   235   0.14765  -0.00672   0.00000   0.00096    0.00000  90.00000   0.00080   234  235  236     12
   236   0.14765  -0.00576   0.00000   0.00096    0.00000  90.00000   0.00080   235  236  237     12
   237   0.14765  -0.00480   0.00000   0.00096    0.00000  90.00000   0.00080   236  237  238     12
   238   0.14765  -0.00384   0.00000   0.00096    0.00000  90.00000   0.00080   237  238  239     12
   239   0.14765  -0.00288   0.00000   0.00096    0.00000  90.00000   0.00080   238  239  240     12
   240   0.14765  -0.00192   0.00000   0.00096    0.00000  90.00000   0.00080   239  240  241     12
   241   0.14765  -0.00096   0.00000   0.00096    0.00000  90.00000   0.00080   240  241  242     12
   242   0.14765   0.00000   0.00000   0.00096    0.00000  90.00000   0.00080   241  242  243     12
   243   0.14765   0.00096   0.00000   0.00096    0.00000  90.00000   0.00080   242  243  244     12
   244   0.14765   0.00192   0.00000   0.00096    0.00000  90.00000   0.00080   243  244  245     12
   245   0.14765   0.00288   0.00000   0.00096    0.00000  90.00000   0.00080   244  245  246     12
   246   0.14765   0.00384   0.00000   0.00096    0.00000  90.00000   0.00080   245  246  247     12
   247   0.14765   0.00480   0.00000   0.00096    0.00000  90.00000   0.00080   246  247  248     12
   248   0.14765   0.00576   0.00000   0.00096    0.00000  90.00000   0.00080   247  248  249     12
   249   0.14765   0.00672   0.00000   0.00096    0.00000  90.00000   0.00080   248  249  250     12
   250   0.14765   0.00768   0.00000   0.00096    0.00000  90.00000   0.00080   249  250  251     12
   251   0.14765   0.00864   0.00000   0.00096    0.00000  90.00000   0.00080   250  251  252     12
   252   0.14765   0.00960   0.00000   0.00096    0.00000  90.00000   0.00080   251  252    0     12






 ***** DATA CARD NO.  1   LD   5     1     1    21  1.56000E+07  0.00000E+00  0.00000E+00  0.00000E+00  0.00000E+00  0.00000E+00
 ***** DATA CARD NO.  2   LD   5     2     1    21  1.56000E+07  0.00000E+00  0.00000E+00  0.00000E+00  0.00000E+00  0.00000E+00
 ***** DATA CARD NO.  3   LD   5     3     1    21  1.56000E+07  0.00000E+00  0.00000E+00  0.00000E+00  0.00000E+00  0.00000E+00
 ***** DATA CARD NO.  4   LD   5     4     1    21  1.56000E+07  0.00000E+00  0.00000E+00  0.00000E+00  0.00000E+00  0.00000E+00
 ***** DATA CARD NO.  5   LD   5     5     1    21  1.56000E+07  0.00000E+00  0.00000E+00  0.00000E+00  0.00000E+00  0.00000E+00
 ***** DATA CARD NO.  6   LD   5     6     1    21  1.56000E+07  0.00000E+00  0.00000E+00  0.00000E+00  0.00000E+00  0.00000E+00
 ***** DATA CARD NO.  7   LD   5     7     1    21  1.56000E+07  0.00000E+00  0.00000E+00  0.00000E+00  0.00000E+00  0.00000E+00
 ***** DATA CARD NO.  8   LD   5     8     1    21  1.56000E+07  0.00000E+00  0.00000E+00  0.00000E+00  0.00000E+00  0.00000E+00
 ***** DATA CARD NO.  9   LD   5     9     1    21  1.56000E+07  0.00000E+00  0.00000E+00  0.00000E+00  0.00000E+00  0.00000E+00
 ***** DATA CARD NO. 10   LD   5    10     1    21  1.56000E+07  0.00000E+00  0.00000E+00  0.00000E+00  0.00000E+00  0.00000E+00
 ***** DATA CARD NO. 11   LD   5    11     1    21  1.56000E+07  0.00000E+00  0.00000E+00  0.00000E+00  0.00000E+00  0.00000E+00
 ***** DATA CARD NO. 12   LD   5    12     1    21  1.56000E+07  0.00000E+00  0.00000E+00  0.00000E+00  0.00000E+00  0.00000E+00
 ***** DATA CARD NO. 13   GN  -1     0     0     0  0.00000E+00  0.00000E+00  0.00000E+00  0.00000E+00  0.00000E+00  0.00000E+00
 ***** DATA CARD NO. 14   EK   0     0     0     0  0.00000E+00  0.00000E+00  0.00000E+00  0.00000E+00  0.00000E+00  0.00000E+00
 ***** DATA CARD NO. 15   EX   0     2    11     0  1.00000E+00  0.00000E+00  0.00000E+00  0.00000E+00  0.00000E+00  0.00000E+00
 ***** DATA CARD NO. 16   FR   0     0     0     0  5.23000E+03  0.00000E+00  0.00000E+00  0.00000E+00  0.00000E+00  0.00000E+00
 ***** DATA CARD NO. 17   RP   0    37    73  1003 -1.80000E+02  0.00000E+00  5.00000E+00  5.00000E+00  0.00000E+00  0.00000E+00




                                 - - - - - - FREQUENCY - - - - - -

                                    FREQUENCY= 5.2300E+03 MHZ
                                    WAVELENGTH= 5.7323E-02 METERS




                    APPROXIMATE INTEGRATION EMPLOYED FOR SEGMENTS MORE THAN   1.000 WAVELENGTHS APART

                    THE EXTENDED THIN WIRE KERNEL WILL BE USED



                               - - - STRUCTURE IMPEDANCE LOADING - - -


       LOCATION          RESISTANCE   INDUCTANCE  CAPACITANCE       IMPEDANCE (OHMS)     CONDUCTIVITY    TYPE
    ITAG FROM THRU          OHMS        HENRYS       FARADS        REAL      IMAGINARY    MHOS/METER

       1    1   21                                                                       1.5600E+07     WIRE  

       2    1   21                                                                       1.5600E+07     WIRE  

       3    1   21                                                                       1.5600E+07     WIRE  

       4    1   21                                                                       1.5600E+07     WIRE  

       5    1   21                                                                       1.5600E+07     WIRE  

       6    1   21                                                                       1.5600E+07     WIRE  

       7    1   21                                                                       1.5600E+07     WIRE  

       8    1   21                                                                       1.5600E+07     WIRE  

       9    1   21                                                                       1.5600E+07     WIRE  

      10    1   21                                                                       1.5600E+07     WIRE  

      11    1   21                                                                       1.5600E+07     WIRE  

      12    1   21                                                                       1.5600E+07     WIRE  



                                  - - - ANTENNA ENVIRONMENT - - -

                                            FREE SPACE



                                - - - MATRIX TIMING - - -

                        FILL=    0.047 SEC.,  FACTOR=    0.016 SEC.



                                          - - - ANTENNA INPUT PARAMETERS - - -

   TAG   SEG.    VOLTAGE (VOLTS)         CURRENT (AMPS)         IMPEDANCE (OHMS)        ADMITTANCE (MHOS)      POWER
   NO.   NO.    REAL        IMAG.       REAL        IMAG.       REAL        IMAG.       REAL        IMAG.     (WATTS)
     2    32 1.00000E+00 0.00000E+00 1.98939E-02 8.18837E-05 5.02657E+01-2.06895E-01 1.98939E-02 8.18837E-05 9.94696E-03



                             - - - CURRENTS AND LOCATION - - -

                                 DISTANCES IN WAVELENGTHS


  SEG.  TAG    COORD. OF SEG. CENTER     SEG.            - - - CURRENT (AMPS) - - -
  NO.   NO.     X        Y        Z      LENGTH     REAL        IMAG.       MAG.        PHASE
     1    1   0.0000  -0.2278   0.0000  0.02278  -4.6780E-04  1.5117E-03  1.5824E-03  107.195
     2    1   0.0000  -0.2050   0.0000  0.02278  -8.8619E-04  2.7924E-03  2.9297E-03  107.607
     3    1   0.0000  -0.1823   0.0000  0.02278  -1.2525E-03  3.8577E-03  4.0559E-03  107.987
     4    1   0.0000  -0.1595   0.0000  0.02278  -1.5926E-03  4.8082E-03  5.0651E-03  108.326
     5    1   0.0000  -0.1367   0.0000  0.02278  -1.9046E-03  5.6514E-03  5.9637E-03  108.625
     6    1   0.0000  -0.1139   0.0000  0.02278  -2.1830E-03  6.3830E-03  6.7460E-03  108.881
     7    1   0.0000  -0.0911   0.0000  0.02278  -2.4213E-03  6.9954E-03  7.4025E-03  109.092
     8    1   0.0000  -0.0683   0.0000  0.02278  -2.6134E-03  7.4807E-03  7.9241E-03  109.257
     9    1   0.0000  -0.0456   0.0000  0.02278  -2.7545E-03  7.8324E-03  8.3027E-03  109.376
    10    1   0.0000  -0.0228   0.0000  0.02278  -2.8407E-03  8.0455E-03  8.5322E-03  109.447
    11    1   0.0000   0.0000   0.0000  0.02278  -2.8697E-03  8.1168E-03  8.6092E-03  109.471
    12    1   0.0000   0.0228   0.0000  0.02278  -2.8407E-03  8.0455E-03  8.5322E-03  109.447
    13    1   0.0000   0.0456   0.0000  0.02278  -2.7545E-03  7.8324E-03  8.3027E-03  109.376
    14    1   0.0000   0.0683   0.0000  0.02278  -2.6134E-03  7.4807E-03  7.9241E-03  109.257
    15    1   0.0000   0.0911   0.0000  0.02278  -2.4213E-03  6.9954E-03  7.4025E-03  109.092
    16    1   0.0000   0.1139   0.0000  0.02278  -2.1830E-03  6.3830E-03  6.7460E-03  108.881
    17    1   0.0000   0.1367   0.0000  0.02278  -1.9046E-03  5.6514E-03  5.9637E-03  108.625
    18    1   0.0000   0.1595   0.0000  0.02278  -1.5926E-03  4.8082E-03  5.0651E-03  108.326
    19    1   0.0000   0.1823   0.0000  0.02278  -1.2525E-03  3.8577E-03  4.0559E-03  107.987
    20    1   0.0000   0.2050   0.0000  0.02278  -8.8619E-04  2.7924E-03  2.9297E-03  107.607
    21    1   0.0000   0.2278   0.0000  0.02278  -4.6780E-04  1.5117E-03  1.5824E-03  107.195
    22    2   0.2081  -0.2140   0.0000  0.02140   3.7262E-03 -1.2496E-03  3.9301E-03  -18.540
    23    2   0.2081  -0.1926   0.0000  0.02140   6.8263E-03 -2.0660E-03  7.1321E-03  -16.838
    24    2   0.2081  -0.1712   0.0000  0.02140   9.4195E-03 -2.5569E-03  9.7604E-03  -15.187
    25    2   0.2081  -0.1498   0.0000  0.02140   1.1743E-02 -2.8476E-03  1.2083E-02  -13.631
    26    2   0.2081  -0.1284   0.0000  0.02140   1.3812E-02 -2.9768E-03  1.4129E-02  -12.162
    27    2   0.2081  -0.1070   0.0000  0.02140   1.5612E-02 -2.9655E-03  1.5891E-02  -10.756
    28    2   0.2081  -0.0856   0.0000  0.02140   1.7121E-02 -2.8239E-03  1.7353E-02   -9.366
    29    2   0.2081  -0.0642   0.0000  0.02140   1.8320E-02 -2.5503E-03  1.8497E-02   -7.925
    30    2   0.2081  -0.0428   0.0000  0.02140   1.9190E-02 -2.1308E-03  1.9308E-02   -6.336
    31    2   0.2081  -0.0214   0.0000  0.02140   1.9717E-02 -1.4094E-03  1.9767E-02   -4.089
    32    2   0.2081   0.0000   0.0000  0.02140   1.9894E-02  8.1884E-05  1.9894E-02    0.236
    33    2   0.2081   0.0214   0.0000  0.02140   1.9717E-02 -1.4094E-03  1.9767E-02   -4.089
    34    2   0.2081   0.0428   0.0000  0.02140   1.9190E-02 -2.1308E-03  1.9308E-02   -6.336
    35    2   0.2081   0.0642   0.0000  0.02140   1.8320E-02 -2.5503E-03  1.8497E-02   -7.925
    36    2   0.2081   0.0856   0.0000  0.02140   1.7121E-02 -2.8239E-03  1.7353E-02   -9.366
    37    2   0.2081   0.1070   0.0000  0.02140   1.5612E-02 -2.9655E-03  1.5891E-02  -10.756
    38    2   0.2081   0.1284   0.0000  0.02140   1.3812E-02 -2.9768E-03  1.4129E-02  -12.162
    39    2   0.2081   0.1498   0.0000  0.02140   1.1743E-02 -2.8476E-03  1.2083E-02  -13.631
    40    2   0.2081   0.1712   0.0000  0.02140   9.4195E-03 -2.5569E-03  9.7604E-03  -15.187
    41    2   0.2081   0.1926   0.0000  0.02140   6.8263E-03 -2.0660E-03  7.1321E-03  -16.838
    42    2   0.2081   0.2140   0.0000  0.02140   3.7262E-03 -1.2496E-03  3.9301E-03  -18.540
    43    3   0.3119  -0.1917   0.0000  0.01917  -1.9908E-03 -3.9272E-03  4.4030E-03 -116.881
    44    3   0.3119  -0.1726   0.0000  0.01917  -3.5764E-03 -6.9283E-03  7.7969E-03 -117.303
    45    3   0.3119  -0.1534   0.0000  0.01917  -4.8966E-03 -9.3568E-03  1.0561E-02 -117.624
    46    3   0.3119  -0.1342   0.0000  0.01917  -6.0674E-03 -1.1480E-02  1.2985E-02 -117.858
    47    3   0.3119  -0.1150   0.0000  0.01917  -7.1000E-03 -1.3340E-02  1.5112E-02 -118.023
    48    3   0.3119  -0.0959   0.0000  0.01917  -7.9911E-03 -1.4945E-02  1.6947E-02 -118.134
    49    3   0.3119  -0.0767   0.0000  0.01917  -8.7334E-03 -1.6285E-02  1.8479E-02 -118.204
    50    3   0.3119  -0.0575   0.0000  0.01917  -9.3196E-03 -1.7350E-02  1.9695E-02 -118.243
    51    3   0.3119  -0.0383   0.0000  0.01917  -9.7432E-03 -1.8125E-02  2.0578E-02 -118.261
    52    3   0.3119  -0.0192   0.0000  0.01917  -9.9993E-03 -1.8597E-02  2.1115E-02 -118.267
    53    3   0.3119   0.0000   0.0000  0.01917  -1.0085E-02 -1.8755E-02  2.1295E-02 -118.268
    54    3   0.3119   0.0192   0.0000  0.01917  -9.9993E-03 -1.8597E-02  2.1115E-02 -118.267
    55    3   0.3119   0.0383   0.0000  0.01917  -9.7432E-03 -1.8125E-02  2.0578E-02 -118.261
    56    3   0.3119   0.0575   0.0000  0.01917  -9.3196E-03 -1.7350E-02  1.9695E-02 -118.243
    57    3   0.3119   0.0767   0.0000  0.01917  -8.7334E-03 -1.6285E-02  1.8479E-02 -118.204
    58    3   0.3119   0.0959   0.0000  0.01917  -7.9911E-03 -1.4945E-02  1.6947E-02 -118.134
    59    3   0.3119   0.1150   0.0000  0.01917  -7.1000E-03 -1.3340E-02  1.5112E-02 -118.023
    60    3   0.3119   0.1342   0.0000  0.01917  -6.0674E-03 -1.1480E-02  1.2985E-02 -117.858
    61    3   0.3119   0.1534   0.0000  0.01917  -4.8966E-03 -9.3568E-03  1.0561E-02 -117.624
    62    3   0.3119   0.1726   0.0000  0.01917  -3.5764E-03 -6.9283E-03  7.7969E-03 -117.303
    63    3   0.3119   0.1917   0.0000  0.01917  -1.9908E-03 -3.9272E-03  4.4030E-03 -116.881
    64    4   0.5457  -0.1865   0.0000  0.01865  -2.7723E-03  3.9979E-03  4.8651E-03  124.739
    65    4   0.5457  -0.1679   0.0000  0.01865  -4.8418E-03  6.9977E-03  8.5094E-03  124.680
    66    4   0.5457  -0.1492   0.0000  0.01865  -6.4973E-03  9.4095E-03  1.1435E-02  124.625
    67    4   0.5457  -0.1306   0.0000  0.01865  -7.9257E-03  1.1499E-02  1.3966E-02  124.576
    68    4   0.5457  -0.1119   0.0000  0.01865  -9.1611E-03  1.3313E-02  1.6161E-02  124.533
    69    4   0.5457  -0.0933   0.0000  0.01865  -1.0212E-02  1.4861E-02  1.8032E-02  124.496
    70    4   0.5457  -0.0746   0.0000  0.01865  -1.1079E-02  1.6140E-02  1.9577E-02  124.465
    71    4   0.5457  -0.0560   0.0000  0.01865  -1.1758E-02  1.7145E-02  2.0789E-02  124.441
    72    4   0.5457  -0.0373   0.0000  0.01865  -1.2246E-02  1.7869E-02  2.1662E-02  124.424
    73    4   0.5457  -0.0187   0.0000  0.01865  -1.2540E-02  1.8305E-02  2.2189E-02  124.413
    74    4   0.5457   0.0000   0.0000  0.01865  -1.2638E-02  1.8451E-02  2.2365E-02  124.410
    75    4   0.5457   0.0187   0.0000  0.01865  -1.2540E-02  1.8305E-02  2.2189E-02  124.413
    76    4   0.5457   0.0373   0.0000  0.01865  -1.2246E-02  1.7869E-02  2.1662E-02  124.424
    77    4   0.5457   0.0560   0.0000  0.01865  -1.1758E-02  1.7145E-02  2.0789E-02  124.441
    78    4   0.5457   0.0746   0.0000  0.01865  -1.1079E-02  1.6140E-02  1.9577E-02  124.465
    79    4   0.5457   0.0933   0.0000  0.01865  -1.0212E-02  1.4861E-02  1.8032E-02  124.496
    80    4   0.5457   0.1119   0.0000  0.01865  -9.1611E-03  1.3313E-02  1.6161E-02  124.533
    81    4   0.5457   0.1306   0.0000  0.01865  -7.9257E-03  1.1499E-02  1.3966E-02  124.576
    82    4   0.5457   0.1492   0.0000  0.01865  -6.4973E-03  9.4095E-03  1.1435E-02  124.625
    83    4   0.5457   0.1679   0.0000  0.01865  -4.8418E-03  6.9977E-03  8.5094E-03  124.680
    84    4   0.5457   0.1865   0.0000  0.01865  -2.7723E-03  3.9979E-03  4.8651E-03  124.739
    85    5   0.9035  -0.1767   0.0000  0.01767   3.4647E-03 -9.7228E-04  3.5986E-03  -15.675
    86    5   0.9035  -0.1590   0.0000  0.01767   5.9635E-03 -1.6716E-03  6.1933E-03  -15.659
    87    5   0.9035  -0.1414   0.0000  0.01767   7.9570E-03 -2.2283E-03  8.2632E-03  -15.645
    88    5   0.9035  -0.1237   0.0000  0.01767   9.6691E-03 -2.7056E-03  1.0040E-02  -15.633
    89    5   0.9035  -0.1060   0.0000  0.01767   1.1145E-02 -3.1166E-03  1.1573E-02  -15.623
    90    5   0.9035  -0.0883   0.0000  0.01767   1.2398E-02 -3.4649E-03  1.2873E-02  -15.615
    91    5   0.9035  -0.0707   0.0000  0.01767   1.3428E-02 -3.7513E-03  1.3942E-02  -15.608
    92    5   0.9035  -0.0530   0.0000  0.01767   1.4235E-02 -3.9752E-03  1.4780E-02  -15.603
    93    5   0.9035  -0.0353   0.0000  0.01767   1.4814E-02 -4.1360E-03  1.5381E-02  -15.599
    94    5   0.9035  -0.0177   0.0000  0.01767   1.5163E-02 -4.2328E-03  1.5743E-02  -15.597
    95    5   0.9035   0.0000   0.0000  0.01767   1.5280E-02 -4.2651E-03  1.5864E-02  -15.596
    96    5   0.9035   0.0177   0.0000  0.01767   1.5163E-02 -4.2328E-03  1.5743E-02  -15.597
    97    5   0.9035   0.0353   0.0000  0.01767   1.4814E-02 -4.1360E-03  1.5381E-02  -15.599
    98    5   0.9035   0.0530   0.0000  0.01767   1.4235E-02 -3.9752E-03  1.4780E-02  -15.603
    99    5   0.9035   0.0707   0.0000  0.01767   1.3428E-02 -3.7513E-03  1.3942E-02  -15.608
   100    5   0.9035   0.0883   0.0000  0.01767   1.2398E-02 -3.4649E-03  1.2873E-02  -15.615
   101    5   0.9035   0.1060   0.0000  0.01767   1.1145E-02 -3.1166E-03  1.1573E-02  -15.623
   102    5   0.9035   0.1237   0.0000  0.01767   9.6691E-03 -2.7056E-03  1.0040E-02  -15.633
   103    5   0.9035   0.1414   0.0000  0.01767   7.9570E-03 -2.2283E-03  8.2632E-03  -15.645
   104    5   0.9035   0.1590   0.0000  0.01767   5.9635E-03 -1.6716E-03  6.1933E-03  -15.659
   105    5   0.9035   0.1767   0.0000  0.01767   3.4647E-03 -9.7228E-04  3.5986E-03  -15.675
   106    6   1.2144  -0.1782   0.0000  0.01782  -2.3802E-03 -1.2687E-03  2.6972E-03 -151.941
   107    6   1.2144  -0.1604   0.0000  0.01782  -4.1025E-03 -2.1906E-03  4.6508E-03 -151.900
   108    6   1.2144  -0.1426   0.0000  0.01782  -5.4742E-03 -2.9276E-03  6.2079E-03 -151.862
   109    6   1.2144  -0.1248   0.0000  0.01782  -6.6512E-03 -3.5621E-03  7.5450E-03 -151.828
   110    6   1.2144  -0.1069   0.0000  0.01782  -7.6649E-03 -4.1102E-03  8.6973E-03 -151.798
   111    6   1.2144  -0.0891   0.0000  0.01782  -8.5245E-03 -4.5761E-03  9.6751E-03 -151.772
   112    6   1.2144  -0.0713   0.0000  0.01782  -9.2313E-03 -4.9600E-03  1.0479E-02 -151.751
   113    6   1.2144  -0.0535   0.0000  0.01782  -9.7842E-03 -5.2608E-03  1.1109E-02 -151.734
   114    6   1.2144  -0.0356   0.0000  0.01782  -1.0181E-02 -5.4771E-03  1.1561E-02 -151.721
   115    6   1.2144  -0.0178   0.0000  0.01782  -1.0420E-02 -5.6074E-03  1.1833E-02 -151.714
   116    6   1.2144   0.0000   0.0000  0.01782  -1.0500E-02 -5.6509E-03  1.1924E-02 -151.712
   117    6   1.2144   0.0178   0.0000  0.01782  -1.0420E-02 -5.6074E-03  1.1833E-02 -151.714
   118    6   1.2144   0.0356   0.0000  0.01782  -1.0181E-02 -5.4771E-03  1.1561E-02 -151.721
   119    6   1.2144   0.0535   0.0000  0.01782  -9.7842E-03 -5.2608E-03  1.1109E-02 -151.734
   120    6   1.2144   0.0713   0.0000  0.01782  -9.2313E-03 -4.9600E-03  1.0479E-02 -151.751
   121    6   1.2144   0.0891   0.0000  0.01782  -8.5245E-03 -4.5761E-03  9.6751E-03 -151.772
   122    6   1.2144   0.1069   0.0000  0.01782  -7.6649E-03 -4.1102E-03  8.6973E-03 -151.798
   123    6   1.2144   0.1248   0.0000  0.01782  -6.6512E-03 -3.5621E-03  7.5450E-03 -151.828
   124    6   1.2144   0.1426   0.0000  0.01782  -5.4742E-03 -2.9276E-03  6.2079E-03 -151.862
   125    6   1.2144   0.1604   0.0000  0.01782  -4.1025E-03 -2.1906E-03  4.6508E-03 -151.900
   126    6   1.2144   0.1782   0.0000  0.01782  -2.3802E-03 -1.2687E-03  2.6972E-03 -151.941
   127    7   1.4539  -0.1648   0.0000  0.01648  -1.1906E-03  1.5352E-03  1.9427E-03  127.795
   128    7   1.4539  -0.1483   0.0000  0.01648  -2.0025E-03  2.5857E-03  3.2705E-03  127.755
   129    7   1.4539  -0.1318   0.0000  0.01648  -2.6455E-03  3.4203E-03  4.3240E-03  127.721
   130    7   1.4539  -0.1153   0.0000  0.01648  -3.1914E-03  4.1306E-03  5.2199E-03  127.691
   131    7   1.4539  -0.0989   0.0000  0.01648  -3.6581E-03  4.7390E-03  5.9866E-03  127.665
   132    7   1.4539  -0.0824   0.0000  0.01648  -4.0513E-03  5.2525E-03  6.6334E-03  127.643
   133    7   1.4539  -0.0659   0.0000  0.01648  -4.3731E-03  5.6734E-03  7.1632E-03  127.626
   134    7   1.4539  -0.0494   0.0000  0.01648  -4.6239E-03  6.0016E-03  7.5762E-03  127.612
   135    7   1.4539  -0.0330   0.0000  0.01648  -4.8034E-03  6.2368E-03  7.8721E-03  127.602
   136    7   1.4539  -0.0165   0.0000  0.01648  -4.9112E-03  6.3782E-03  8.0500E-03  127.596
   137    7   1.4539   0.0000   0.0000  0.01648  -4.9472E-03  6.4254E-03  8.1093E-03  127.594
   138    7   1.4539   0.0165   0.0000  0.01648  -4.9112E-03  6.3782E-03  8.0500E-03  127.596
   139    7   1.4539   0.0330   0.0000  0.01648  -4.8034E-03  6.2368E-03  7.8721E-03  127.602
   140    7   1.4539   0.0494   0.0000  0.01648  -4.6239E-03  6.0016E-03  7.5762E-03  127.612
   141    7   1.4539   0.0659   0.0000  0.01648  -4.3731E-03  5.6734E-03  7.1632E-03  127.626
   142    7   1.4539   0.0824   0.0000  0.01648  -4.0513E-03  5.2525E-03  6.6334E-03  127.643
   143    7   1.4539   0.0989   0.0000  0.01648  -3.6581E-03  4.7390E-03  5.9866E-03  127.665
   144    7   1.4539   0.1153   0.0000  0.01648  -3.1914E-03  4.1306E-03  5.2199E-03  127.691
   145    7   1.4539   0.1318   0.0000  0.01648  -2.6455E-03  3.4203E-03  4.3240E-03  127.721
   146    7   1.4539   0.1483   0.0000  0.01648  -2.0025E-03  2.5857E-03  3.2705E-03  127.755
   147    7   1.4539   0.1648   0.0000  0.01648  -1.1906E-03  1.5352E-03  1.9427E-03  127.795
   148    8   1.6907  -0.1567   0.0000  0.01567   1.4061E-03  8.2121E-04  1.6284E-03   30.286
   149    8   1.6907  -0.1410   0.0000  0.01567   2.3250E-03  1.3622E-03  2.6946E-03   30.365
   150    8   1.6907  -0.1253   0.0000  0.01567   3.0513E-03  1.7928E-03  3.5390E-03   30.435
   151    8   1.6907  -0.1097   0.0000  0.01567   3.6635E-03  2.1577E-03  4.2516E-03   30.497
   152    8   1.6907  -0.0940   0.0000  0.01567   4.1838E-03  2.4694E-03  4.8583E-03   30.550
   153    8   1.6907  -0.0783   0.0000  0.01567   4.6204E-03  2.7320E-03  5.3677E-03   30.596
   154    8   1.6907  -0.0627   0.0000  0.01567   4.9764E-03  2.9469E-03  5.7835E-03   30.632
   155    8   1.6907  -0.0470   0.0000  0.01567   5.2531E-03  3.1142E-03  6.1068E-03   30.661
   156    8   1.6907  -0.0313   0.0000  0.01567   5.4507E-03  3.2339E-03  6.3379E-03   30.681
   157    8   1.6907  -0.0157   0.0000  0.01567   5.5693E-03  3.3059E-03  6.4766E-03   30.693
   158    8   1.6907   0.0000   0.0000  0.01567   5.6089E-03  3.3299E-03  6.5229E-03   30.697
   159    8   1.6907   0.0157   0.0000  0.01567   5.5693E-03  3.3059E-03  6.4766E-03   30.693
   160    8   1.6907   0.0313   0.0000  0.01567   5.4507E-03  3.2339E-03  6.3379E-03   30.681
   161    8   1.6907   0.0470   0.0000  0.01567   5.2531E-03  3.1142E-03  6.1068E-03   30.661
   162    8   1.6907   0.0627   0.0000  0.01567   4.9764E-03  2.9469E-03  5.7835E-03   30.632
   163    8   1.6907   0.0783   0.0000  0.01567   4.6204E-03  2.7320E-03  5.3677E-03   30.596
   164    8   1.6907   0.0940   0.0000  0.01567   4.1838E-03  2.4694E-03  4.8583E-03   30.550
   165    8   1.6907   0.1097   0.0000  0.01567   3.6635E-03  2.1577E-03  4.2516E-03   30.497
   166    8   1.6907   0.1253   0.0000  0.01567   3.0513E-03  1.7928E-03  3.5390E-03   30.435
   167    8   1.6907   0.1410   0.0000  0.01567   2.3250E-03  1.3622E-03  2.6946E-03   30.365
   168    8   1.6907   0.1567   0.0000  0.01567   1.4061E-03  8.2121E-04  1.6284E-03   30.286
   169    9   1.8770  -0.1658   0.0000  0.01658   1.6043E-03 -9.2746E-04  1.8531E-03  -30.033
   170    9   1.8770  -0.1492   0.0000  0.01658   2.7034E-03 -1.5644E-03  3.1234E-03  -30.057
   171    9   1.8770  -0.1327   0.0000  0.01658   3.5735E-03 -2.0699E-03  4.1297E-03  -30.080
   172    9   1.8770  -0.1161   0.0000  0.01658   4.3125E-03 -2.5001E-03  4.9848E-03  -30.103
   173    9   1.8770  -0.0995   0.0000  0.01658   4.9440E-03 -2.8686E-03  5.7160E-03  -30.123
   174    9   1.8770  -0.0829   0.0000  0.01658   5.4762E-03 -3.1797E-03  6.3324E-03  -30.141
   175    9   1.8770  -0.0663   0.0000  0.01658   5.9116E-03 -3.4346E-03  6.8370E-03  -30.157
   176    9   1.8770  -0.0497   0.0000  0.01658   6.2508E-03 -3.6335E-03  7.2302E-03  -30.169
   177    9   1.8770  -0.0332   0.0000  0.01658   6.4936E-03 -3.7759E-03  7.5117E-03  -30.177
   178    9   1.8770  -0.0166   0.0000  0.01658   6.6396E-03 -3.8616E-03  7.6809E-03  -30.183
   179    9   1.8770   0.0000   0.0000  0.01658   6.6883E-03 -3.8902E-03  7.7373E-03  -30.184
   180    9   1.8770   0.0166   0.0000  0.01658   6.6396E-03 -3.8616E-03  7.6809E-03  -30.183
   181    9   1.8770   0.0332   0.0000  0.01658   6.4936E-03 -3.7759E-03  7.5117E-03  -30.177
   182    9   1.8770   0.0497   0.0000  0.01658   6.2508E-03 -3.6335E-03  7.2302E-03  -30.169
   183    9   1.8770   0.0663   0.0000  0.01658   5.9116E-03 -3.4346E-03  6.8370E-03  -30.157
   184    9   1.8770   0.0829   0.0000  0.01658   5.4762E-03 -3.1797E-03  6.3324E-03  -30.141
   185    9   1.8770   0.0995   0.0000  0.01658   4.9440E-03 -2.8686E-03  5.7160E-03  -30.123
   186    9   1.8770   0.1161   0.0000  0.01658   4.3125E-03 -2.5001E-03  4.9848E-03  -30.103
   187    9   1.8770   0.1327   0.0000  0.01658   3.5735E-03 -2.0699E-03  4.1297E-03  -30.080
   188    9   1.8770   0.1492   0.0000  0.01658   2.7034E-03 -1.5644E-03  3.1234E-03  -30.057
   189    9   1.8770   0.1658   0.0000  0.01658   1.6043E-03 -9.2746E-04  1.8531E-03  -30.033
   190   10   2.0979  -0.1655   0.0000  0.01655  -1.2685E-03 -1.3382E-03  1.8439E-03 -133.468
   191   10   2.0979  -0.1489   0.0000  0.01655  -2.1378E-03 -2.2555E-03  3.1076E-03 -133.466
   192   10   2.0979  -0.1324   0.0000  0.01655  -2.8273E-03 -2.9831E-03  4.1101E-03 -133.464
   193   10   2.0979  -0.1158   0.0000  0.01655  -3.4137E-03 -3.6019E-03  4.9626E-03 -133.463
   194   10   2.0979  -0.0993   0.0000  0.01655  -3.9155E-03 -4.1316E-03  5.6922E-03 -133.462
   195   10   2.0979  -0.0827   0.0000  0.01655  -4.3388E-03 -4.5784E-03  6.3078E-03 -133.461
   196   10   2.0979  -0.0662   0.0000  0.01655  -4.6855E-03 -4.9444E-03  6.8119E-03 -133.460
   197   10   2.0979  -0.0496   0.0000  0.01655  -4.9558E-03 -5.2298E-03  7.2049E-03 -133.459
   198   10   2.0979  -0.0331   0.0000  0.01655  -5.1494E-03 -5.4341E-03  7.4864E-03 -133.459
   199   10   2.0979  -0.0165   0.0000  0.01655  -5.2658E-03 -5.5570E-03  7.6557E-03 -133.459
   200   10   2.0979   0.0000   0.0000  0.01655  -5.3047E-03 -5.5980E-03  7.7122E-03 -133.459
   201   10   2.0979   0.0165   0.0000  0.01655  -5.2658E-03 -5.5570E-03  7.6557E-03 -133.459
   202   10   2.0979   0.0331   0.0000  0.01655  -5.1494E-03 -5.4341E-03  7.4864E-03 -133.459
   203   10   2.0979   0.0496   0.0000  0.01655  -4.9558E-03 -5.2298E-03  7.2049E-03 -133.459
   204   10   2.0979   0.0662   0.0000  0.01655  -4.6855E-03 -4.9444E-03  6.8119E-03 -133.460
   205   10   2.0979   0.0827   0.0000  0.01655  -4.3388E-03 -4.5784E-03  6.3078E-03 -133.461
   206   10   2.0979   0.0993   0.0000  0.01655  -3.9155E-03 -4.1316E-03  5.6922E-03 -133.462
   207   10   2.0979   0.1158   0.0000  0.01655  -3.4137E-03 -3.6019E-03  4.9626E-03 -133.463
   208   10   2.0979   0.1324   0.0000  0.01655  -2.8273E-03 -2.9831E-03  4.1101E-03 -133.464
   209   10   2.0979   0.1489   0.0000  0.01655  -2.1378E-03 -2.2555E-03  3.1076E-03 -133.466
   210   10   2.0979   0.1655   0.0000  0.01655  -1.2685E-03 -1.3382E-03  1.8439E-03 -133.468
   211   11   2.3159  -0.1653   0.0000  0.01653  -1.7956E-03  6.4591E-04  1.9083E-03  160.216
   212   11   2.3159  -0.1488   0.0000  0.01653  -3.0248E-03  1.0899E-03  3.2152E-03  160.185
   213   11   2.3159  -0.1323   0.0000  0.01653  -3.9993E-03  1.4432E-03  4.2518E-03  160.157
   214   11   2.3159  -0.1157   0.0000  0.01653  -4.8277E-03  1.7446E-03  5.1332E-03  160.131
   215   11   2.3159  -0.0992   0.0000  0.01653  -5.5363E-03  2.0032E-03  5.8876E-03  160.108
   216   11   2.3159  -0.0827   0.0000  0.01653  -6.1339E-03  2.2219E-03  6.5239E-03  160.088
   217   11   2.3159  -0.0661   0.0000  0.01653  -6.6232E-03  2.4013E-03  7.0451E-03  160.072
   218   11   2.3159  -0.0496   0.0000  0.01653  -7.0046E-03  2.5414E-03  7.4514E-03  160.058
   219   11   2.3159  -0.0331   0.0000  0.01653  -7.2777E-03  2.6419E-03  7.7424E-03  160.049
   220   11   2.3159  -0.0165   0.0000  0.01653  -7.4419E-03  2.7023E-03  7.9174E-03  160.043
   221   11   2.3159   0.0000   0.0000  0.01653  -7.4967E-03  2.7225E-03  7.9758E-03  160.041
   222   11   2.3159   0.0165   0.0000  0.01653  -7.4419E-03  2.7023E-03  7.9174E-03  160.043
   223   11   2.3159   0.0331   0.0000  0.01653  -7.2777E-03  2.6419E-03  7.7424E-03  160.049
   224   11   2.3159   0.0496   0.0000  0.01653  -7.0046E-03  2.5414E-03  7.4514E-03  160.058
   225   11   2.3159   0.0661   0.0000  0.01653  -6.6232E-03  2.4013E-03  7.0451E-03  160.072
   226   11   2.3159   0.0827   0.0000  0.01653  -6.1339E-03  2.2219E-03  6.5239E-03  160.088
   227   11   2.3159   0.0992   0.0000  0.01653  -5.5363E-03  2.0032E-03  5.8876E-03  160.108
   228   11   2.3159   0.1157   0.0000  0.01653  -4.8277E-03  1.7446E-03  5.1332E-03  160.131
   229   11   2.3159   0.1323   0.0000  0.01653  -3.9993E-03  1.4432E-03  4.2518E-03  160.157
   230   11   2.3159   0.1488   0.0000  0.01653  -3.0248E-03  1.0899E-03  3.2152E-03  160.185
   231   11   2.3159   0.1653   0.0000  0.01653  -1.7956E-03  6.4591E-04  1.9083E-03  160.216
   232   12   2.5757  -0.1675   0.0000  0.01675   1.5585E-03  1.4013E-03  2.0958E-03   41.961
   233   12   2.5757  -0.1508   0.0000  0.01675   2.6414E-03  2.3693E-03  3.5483E-03   41.892
   234   12   2.5757  -0.1340   0.0000  0.01675   3.5042E-03  3.1365E-03  4.7028E-03   41.831
   235   12   2.5757  -0.1173   0.0000  0.01675   4.2414E-03  3.7892E-03  5.6875E-03   41.777
   236   12   2.5757  -0.1005   0.0000  0.01675   4.8749E-03  4.3479E-03  6.5321E-03   41.730
   237   12   2.5757  -0.0838   0.0000  0.01675   5.4111E-03  4.8192E-03  7.2460E-03   41.689
   238   12   2.5757  -0.0670   0.0000  0.01675   5.8514E-03  5.2053E-03  7.8316E-03   41.656
   239   12   2.5757  -0.0503   0.0000  0.01675   6.1954E-03  5.5063E-03  8.2887E-03   41.629
   240   12   2.5757  -0.0335   0.0000  0.01675   6.4423E-03  5.7218E-03  8.6164E-03   41.610
   241   12   2.5757  -0.0168   0.0000  0.01675   6.5908E-03  5.8514E-03  8.8135E-03   41.599
   242   12   2.5757   0.0000   0.0000  0.01675   6.6404E-03  5.8947E-03  8.8793E-03   41.595
   243   12   2.5757   0.0168   0.0000  0.01675   6.5908E-03  5.8514E-03  8.8135E-03   41.599
   244   12   2.5757   0.0335   0.0000  0.01675   6.4423E-03  5.7218E-03  8.6164E-03   41.610
   245   12   2.5757   0.0503   0.0000  0.01675   6.1954E-03  5.5063E-03  8.2887E-03   41.629
   246   12   2.5757   0.0670   0.0000  0.01675   5.8514E-03  5.2053E-03  7.8316E-03   41.656
   247   12   2.5757   0.0838   0.0000  0.01675   5.4111E-03  4.8192E-03  7.2460E-03   41.689
   248   12   2.5757   0.1005   0.0000  0.01675   4.8749E-03  4.3479E-03  6.5321E-03   41.730
   249   12   2.5757   0.1173   0.0000  0.01675   4.2414E-03  3.7892E-03  5.6875E-03   41.777
   250   12   2.5757   0.1340   0.0000  0.01675   3.5042E-03  3.1365E-03  4.7028E-03   41.831
   251   12   2.5757   0.1508   0.0000  0.01675   2.6414E-03  2.3693E-03  3.5483E-03   41.892
   252   12   2.5757   0.1675   0.0000  0.01675   1.5585E-03  1.4013E-03  2.0958E-03   41.961



                                        - - - POWER BUDGET - - -

                                           INPUT POWER   = 9.9470E-03 WATTS
                                           RADIATED POWER= 9.8434E-03 WATTS
                                           STRUCTURE LOSS= 1.0356E-04 WATTS
                                           NETWORK LOSS  = 0.0000E+00 WATTS
                                           EFFICIENCY    =  98.96 PERCENT



                                                - - - RADIATION PATTERNS - - -

  - - ANGLES - -           - POWER GAINS -       - - - POLARIZATION - - -    - - - E(THETA) - - -    - - - E(PHI) - - -
  THETA     PHI        VERT.   HOR.    TOTAL      AXIAL     TILT   SENSE     MAGNITUDE    PHASE      MAGNITUDE    PHASE 
 DEGREES  DEGREES       DB      DB      DB        RATIO     DEG.              VOLTS/M    DEGREES      VOLTS/M    DEGREES
 -180.00     0.00    -999.99  -11.13  -11.13    0.00000    90.00  LINEAR    0.00000E+00     0.00    2.14402E-01   -20.54
 -175.00     0.00    -999.99   -9.96   -9.96    0.00000    90.00  LINEAR    0.00000E+00     0.00    2.45447E-01   -67.94
 -170.00     0.00    -999.99  -17.22  -17.22    0.00000   -90.00  LINEAR    0.00000E+00     0.00    1.06356E-01   -90.97
 -165.00     0.00    -999.99  -13.97  -13.97    0.00000    90.00  LINEAR    0.00000E+00     0.00    1.54640E-01   -15.90
 -160.00     0.00    -999.99   -7.30   -7.30    0.00000    90.00  LINEAR    0.00000E+00     0.00    3.33122E-01   -48.25
 -155.00     0.00    -999.99   -5.38   -5.38    0.00000   -90.00  LINEAR    0.00000E+00     0.00    4.15842E-01   -91.99
 -150.00     0.00    -999.99   -5.69   -5.69    0.00000   -90.00  LINEAR    0.00000E+00     0.00    4.01113E-01  -137.60
 -145.00     0.00    -999.99   -7.69   -7.69    0.00000   -90.00  LINEAR    0.00000E+00     0.00    3.18455E-01   178.52
 -140.00     0.00    -999.99  -12.02  -12.02    0.00000   -90.00  LINEAR    0.00000E+00     0.00    1.93592E-01   142.15
 -135.00     0.00    -999.99  -21.33  -21.33    0.00000   -90.00  LINEAR    0.00000E+00     0.00    6.62422E-02   148.17
 -130.00     0.00    -999.99  -15.06  -15.06    0.00000   -90.00  LINEAR    0.00000E+00     0.00    1.36460E-01  -154.04
 -125.00     0.00    -999.99   -9.69   -9.69    0.00000   -90.00  LINEAR    0.00000E+00     0.00    2.53081E-01  -170.91
 -120.00     0.00    -999.99   -7.57   -7.57    0.00000   -90.00  LINEAR    0.00000E+00     0.00    3.22883E-01   167.88
 -115.00     0.00    -999.99   -7.18   -7.18    0.00000   -90.00  LINEAR    0.00000E+00     0.00    3.37760E-01   148.99
 -110.00     0.00    -999.99   -7.98   -7.98    0.00000   -90.00  LINEAR    0.00000E+00     0.00    3.08311E-01   133.63
 -105.00     0.00    -999.99   -9.64   -9.64    0.00000   -90.00  LINEAR    0.00000E+00     0.00    2.54590E-01   122.24
 -100.00     0.00    -999.99  -11.81  -11.81    0.00000   -90.00  LINEAR    0.00000E+00     0.00    1.98279E-01   115.04
  -95.00     0.00    -999.99  -13.83  -13.83    0.00000   -90.00  LINEAR    0.00000E+00     0.00    1.57170E-01   111.75
  -90.00     0.00    -999.99  -14.69  -14.69    0.00000   -90.00  LINEAR    0.00000E+00     0.00    1.42276E-01   111.02
  -85.00     0.00    -999.99  -13.83  -13.83    0.00000   -90.00  LINEAR    0.00000E+00     0.00    1.57170E-01   111.75
  -80.00     0.00    -999.99  -11.81  -11.81    0.00000   -90.00  LINEAR    0.00000E+00     0.00    1.98279E-01   115.04
  -75.00     0.00    -999.99   -9.64   -9.64    0.00000   -90.00  LINEAR    0.00000E+00     0.00    2.54590E-01   122.24
  -70.00     0.00    -999.99   -7.98   -7.98    0.00000   -90.00  LINEAR    0.00000E+00     0.00    3.08311E-01   133.63
  -65.00     0.00    -999.99   -7.18   -7.18    0.00000   -90.00  LINEAR    0.00000E+00     0.00    3.37760E-01   148.99
  -60.00     0.00    -999.99   -7.57   -7.57    0.00000   -90.00  LINEAR    0.00000E+00     0.00    3.22883E-01   167.88
  -55.00     0.00    -999.99   -9.69   -9.69    0.00000   -90.00  LINEAR    0.00000E+00     0.00    2.53081E-01  -170.91
  -50.00     0.00    -999.99  -15.06  -15.06    0.00000   -90.00  LINEAR    0.00000E+00     0.00    1.36460E-01  -154.04
  -45.00     0.00    -999.99  -21.33  -21.33    0.00000   -90.00  LINEAR    0.00000E+00     0.00    6.62422E-02   148.17
  -40.00     0.00    -999.99  -12.02  -12.02    0.00000   -90.00  LINEAR    0.00000E+00     0.00    1.93592E-01   142.15
  -35.00     0.00    -999.99   -7.69   -7.69    0.00000   -90.00  LINEAR    0.00000E+00     0.00    3.18455E-01   178.52
  -30.00     0.00    -999.99   -5.69   -5.69    0.00000   -90.00  LINEAR    0.00000E+00     0.00    4.01113E-01  -137.60
  -25.00     0.00    -999.99   -5.38   -5.38    0.00000   -90.00  LINEAR    0.00000E+00     0.00    4.15842E-01   -91.99
  -20.00     0.00    -999.99   -7.30   -7.30    0.00000    90.00  LINEAR    0.00000E+00     0.00    3.33122E-01   -48.25
  -15.00     0.00    -999.99  -13.97  -13.97    0.00000    90.00  LINEAR    0.00000E+00     0.00    1.54640E-01   -15.90
  -10.00     0.00    -999.99  -17.22  -17.22    0.00000   -90.00  LINEAR    0.00000E+00     0.00    1.06356E-01   -90.97
   -5.00     0.00    -999.99   -9.96   -9.96    0.00000    90.00  LINEAR    0.00000E+00     0.00    2.45447E-01   -67.94
    0.00     0.00    -999.99  -11.13  -11.13    0.00000    90.00  LINEAR    0.00000E+00     0.00    2.14402E-01   -20.54
 -180.00     5.00     -32.32  -11.16  -11.13    0.00000   -85.00  LINEAR    1.86864E-02   159.46    2.13587E-01   -20.54
 -175.00     5.00     -31.17   -9.98   -9.95    0.00000   -85.02  LINEAR    2.13334E-02   112.22    2.44774E-01   -67.78
 -170.00     5.00     -38.44  -17.15  -17.12    0.00000   -85.08  LINEAR    9.24058E-03    88.86    1.07250E-01   -91.14
 -165.00     5.00     -35.60  -14.14  -14.11    0.00000   -85.17  LINEAR    1.28171E-02   164.24    1.51668E-01   -15.76
 -160.00     5.00     -29.10   -7.40   -7.37    0.00000   -85.30  LINEAR    2.70993E-02   132.41    3.29625E-01   -47.59
 -155.00     5.00     -27.44   -5.43   -5.40    0.00000   -85.47  LINEAR    3.27882E-02    88.94    4.13514E-01   -91.06
 -150.00     5.00     -28.11   -5.70   -5.67    0.00000   -85.67  LINEAR    3.03633E-02    43.54    4.00744E-01  -136.46
 -145.00     5.00     -30.54   -7.64   -7.62    0.00000   -85.90  LINEAR    2.29547E-02    -0.22    3.20298E-01   179.78
 -140.00     5.00     -35.31  -11.84  -11.82    0.00000   -86.17  LINEAR    1.32499E-02   -36.82    1.97699E-01   143.18
 -135.00     5.00     -45.12  -20.95  -20.93    0.00000   -86.46  LINEAR    4.28488E-03   -35.34    6.92631E-02   144.66
 -130.00     5.00     -40.54  -15.54  -15.52    0.00000   -86.78  LINEAR    7.26015E-03    26.23    1.29100E-01  -153.77
 -125.00     5.00     -35.94   -9.95   -9.94    0.00000   -87.13  LINEAR    1.23308E-02    10.43    2.45725E-01  -169.57
 -120.00     5.00     -34.89   -7.71   -7.70    0.00000   -87.50  LINEAR    1.39066E-02   -10.56    3.17905E-01   169.44
 -115.00     5.00     -35.85   -7.21   -7.21    0.00000   -87.88  LINEAR    1.24475E-02   -29.39    3.36654E-01   150.61
 -110.00     5.00     -38.36   -7.88   -7.88    0.00000   -88.29  LINEAR    9.32671E-03   -44.76    3.11692E-01   135.24
 -105.00     5.00     -42.28   -9.38   -9.38    0.00000   -88.70  LINEAR    5.93765E-03   -56.25    2.62220E-01   123.75
 -100.00     5.00     -47.71  -11.34  -11.34    0.00000   -89.13  LINEAR    3.17930E-03   -63.68    2.09271E-01   116.32
  -95.00     5.00     -55.49  -13.13  -13.13    0.00000   -89.56  LINEAR    1.29816E-03   -67.34    1.70248E-01   112.66
  -90.00     5.00    -999.99  -13.89  -13.89    0.00000   -90.00  LINEAR    6.96710E-14   -68.30    1.56041E-01   111.70
  -85.00     5.00     -55.49  -13.13  -13.13    0.00000    89.56  LINEAR    1.29816E-03   112.66    1.70248E-01   112.66
  -80.00     5.00     -47.71  -11.34  -11.34    0.00000    89.13  LINEAR    3.17930E-03   116.32    2.09271E-01   116.32
  -75.00     5.00     -42.28   -9.38   -9.38    0.00000    88.70  LINEAR    5.93765E-03   123.75    2.62220E-01   123.75
  -70.00     5.00     -38.36   -7.88   -7.88    0.00000    88.29  LINEAR    9.32671E-03   135.24    3.11692E-01   135.24
  -65.00     5.00     -35.85   -7.21   -7.21    0.00000    87.88  LINEAR    1.24475E-02   150.61    3.36654E-01   150.61
  -60.00     5.00     -34.89   -7.71   -7.70    0.00000    87.50  LINEAR    1.39066E-02   169.44    3.17905E-01   169.44
  -55.00     5.00     -35.94   -9.95   -9.94    0.00000    87.13  LINEAR    1.23308E-02  -169.57    2.45725E-01  -169.57
  -50.00     5.00     -40.54  -15.54  -15.52    0.00000    86.78  LINEAR    7.26015E-03  -153.77    1.29100E-01  -153.77
  -45.00     5.00     -45.12  -20.95  -20.93    0.00000    86.46  LINEAR    4.28488E-03   144.66    6.92631E-02   144.66
  -40.00     5.00     -35.31  -11.84  -11.82    0.00000    86.17  LINEAR    1.32499E-02   143.18    1.97699E-01   143.18
  -35.00     5.00     -30.54   -7.64   -7.62    0.00000    85.90  LINEAR    2.29547E-02   179.78    3.20298E-01   179.78
  -30.00     5.00     -28.11   -5.70   -5.67    0.00000    85.67  LINEAR    3.03633E-02  -136.46    4.00744E-01  -136.46
  -25.00     5.00     -27.44   -5.43   -5.40    0.00000    85.47  LINEAR    3.27882E-02   -91.06    4.13514E-01   -91.06
  -20.00     5.00     -29.10   -7.40   -7.37    0.00000    85.30  LINEAR    2.70993E-02   -47.59    3.29625E-01   -47.59
  -15.00     5.00     -35.60  -14.14  -14.11    0.00000    85.17  LINEAR    1.28171E-02   -15.76    1.51668E-01   -15.76
  -10.00     5.00     -38.44  -17.15  -17.12    0.00000    85.08  LINEAR    9.24058E-03   -91.14    1.07250E-01   -91.14
   -5.00     5.00     -31.17   -9.98   -9.95    0.00000    85.02  LINEAR    2.13334E-02   -67.78    2.44774E-01   -67.78
    0.00     5.00     -32.32  -11.16  -11.13    0.00000    85.00  LINEAR    1.86864E-02   -20.54    2.13587E-01   -20.54
 -180.00    10.00     -26.34  -11.26  -11.13    0.00000   -80.00  LINEAR    3.72306E-02   159.46    2.11145E-01   -20.54
 -175.00    10.00     -25.16  -10.05   -9.92    0.00000   -80.04  LINEAR    4.26370E-02   112.68    2.42730E-01   -67.32
 -170.00    10.00     -32.14  -16.94  -16.81    0.00000   -80.15  LINEAR    1.90818E-02    88.44    1.09888E-01   -91.56
 -165.00    10.00     -30.03  -14.65  -14.53    0.00000   -80.33  LINEAR    2.43390E-02   164.55    1.42902E-01   -15.45
 -160.00    10.00     -23.29   -7.68   -7.56    0.00000   -80.59  LINEAR    5.28765E-02   134.36    3.19123E-01   -45.64
 -155.00    10.00     -21.51   -5.58   -5.47    0.00000   -80.92  LINEAR    6.49369E-02    91.69    4.06347E-01   -88.31
 -150.00    10.00     -22.05   -5.73   -5.63    0.00000   -81.32  LINEAR    6.09779E-02    46.96    3.99322E-01  -133.04
 -145.00    10.00     -24.31   -7.51   -7.42    0.00000   -81.78  LINEAR    4.69992E-02     3.59    3.25392E-01  -176.41
 -140.00    10.00     -28.72  -11.33  -11.25    0.00000   -82.31  LINEAR    2.83018E-02   -33.55    2.09528E-01   146.45
 -135.00    10.00     -37.71  -19.62  -19.56    0.00000   -82.89  LINEAR    1.00551E-02   -42.82    8.06460E-02   137.18
 -130.00    10.00     -36.01  -17.10  -17.05    0.00000   -83.53  LINEAR    1.22214E-02    26.02    1.07829E-01  -153.98
 -125.00    10.00     -30.68  -10.78  -10.73    0.00000   -84.22  LINEAR    2.25854E-02    14.35    2.23315E-01  -165.65
 -120.00    10.00     -29.26   -8.16   -8.13    0.00000   -84.96  LINEAR    2.65958E-02    -5.92    3.01664E-01   174.08
 -115.00    10.00     -29.91   -7.36   -7.33    0.00000   -85.74  LINEAR    2.46689E-02   -24.52    3.31041E-01   155.48
 -110.00    10.00     -32.08   -7.69   -7.67    0.00000   -86.55  LINEAR    1.92184E-02   -39.87    3.18674E-01   140.13
 -105.00    10.00     -35.59   -8.77   -8.76    0.00000   -87.39  LINEAR    1.28381E-02   -51.55    2.81310E-01   128.45
 -100.00    10.00     -40.50  -10.22  -10.22    0.00000   -88.25  LINEAR    7.28934E-03   -59.44    2.38067E-01   120.56
  -95.00    10.00     -47.78  -11.51  -11.51    0.00000   -89.12  LINEAR    3.15301E-03   -63.77    2.05168E-01   116.23
  -90.00    10.00    -999.99  -12.04  -12.04    0.00000   -90.00  LINEAR    1.73699E-13   -65.10    1.93027E-01   114.90
  -85.00    10.00     -47.78  -11.51  -11.51    0.00000    89.12  LINEAR    3.15301E-03   116.23    2.05168E-01   116.23
  -80.00    10.00     -40.50  -10.22  -10.22    0.00000    88.25  LINEAR    7.28934E-03   120.56    2.38067E-01   120.56
  -75.00    10.00     -35.59   -8.77   -8.76    0.00000    87.39  LINEAR    1.28381E-02   128.45    2.81310E-01   128.45
  -70.00    10.00     -32.08   -7.69   -7.67    0.00000    86.55  LINEAR    1.92184E-02   140.13    3.18674E-01   140.13
  -65.00    10.00     -29.91   -7.36   -7.33    0.00000    85.74  LINEAR    2.46689E-02   155.48    3.31041E-01   155.48
  -60.00    10.00     -29.26   -8.16   -8.13    0.00000    84.96  LINEAR    2.65958E-02   174.08    3.01664E-01   174.08
  -55.00    10.00     -30.68  -10.78  -10.73    0.00000    84.22  LINEAR    2.25854E-02  -165.65    2.23315E-01  -165.65
  -50.00    10.00     -36.01  -17.10  -17.05    0.00000    83.53  LINEAR    1.22214E-02  -153.98    1.07829E-01  -153.98
  -45.00    10.00     -37.71  -19.62  -19.56    0.00000    82.89  LINEAR    1.00551E-02   137.18    8.06460E-02   137.18
  -40.00    10.00     -28.72  -11.33  -11.25    0.00000    82.31  LINEAR    2.83018E-02   146.45    2.09528E-01   146.45
  -35.00    10.00     -24.31   -7.51   -7.42    0.00000    81.78  LINEAR    4.69992E-02  -176.41    3.25392E-01  -176.41
  -30.00    10.00     -22.05   -5.73   -5.63    0.00000    81.32  LINEAR    6.09779E-02  -133.04    3.99322E-01  -133.04
  -25.00    10.00     -21.51   -5.58   -5.47    0.00000    80.92  LINEAR    6.49369E-02   -88.31    4.06347E-01   -88.31
  -20.00    10.00     -23.29   -7.68   -7.56    0.00000    80.59  LINEAR    5.28765E-02   -45.64    3.19123E-01   -45.64
  -15.00    10.00     -30.03  -14.65  -14.53    0.00000    80.33  LINEAR    2.43390E-02   -15.45    1.42902E-01   -15.45
  -10.00    10.00     -32.14  -16.94  -16.81    0.00000    80.15  LINEAR    1.90818E-02   -91.56    1.09888E-01   -91.56
   -5.00    10.00     -25.16  -10.05   -9.92    0.00000    80.04  LINEAR    4.26370E-02   -67.32    2.42730E-01   -67.32
    0.00    10.00     -26.34  -11.26  -11.13    0.00000    80.00  LINEAR    3.72306E-02   -20.54    2.11145E-01   -20.54
 -180.00    15.00     -22.87  -11.43  -11.13    0.00000   -75.00  LINEAR    5.54914E-02   159.46    2.07097E-01   -20.54
 -175.00    15.00     -21.65  -10.18   -9.88    0.00000   -75.05  LINEAR    6.38634E-02   113.44    2.39252E-01   -66.56
 -170.00    15.00     -28.18  -16.61  -16.32    0.00000   -75.22  LINEAR    3.01140E-02    87.98    1.14121E-01   -92.02
 -165.00    15.00     -27.30  -15.56  -15.27    0.00000   -75.49  LINEAR    3.33422E-02   164.76    1.28824E-01   -15.24
 -160.00    15.00     -20.15   -8.17   -7.90    0.00000   -75.87  LINEAR    7.59424E-02   137.55    3.01610E-01   -42.45
 -155.00    15.00     -18.14   -5.85   -5.60    0.00000   -76.35  LINEAR    9.56375E-02    96.22    3.93822E-01   -83.78
 -150.00    15.00     -18.49   -5.80   -5.58    0.00000   -76.94  LINEAR    9.18773E-02    52.61    3.95936E-01  -127.39
 -145.00    15.00     -20.49   -7.32   -7.12    0.00000   -77.62  LINEAR    7.29733E-02     9.97    3.32466E-01  -170.03
 -140.00    15.00     -24.37  -10.61  -10.43    0.00000   -78.40  LINEAR    4.67083E-02   -27.68    2.27556E-01   152.32
 -135.00    15.00     -31.91  -17.46  -17.31    0.00000   -79.27  LINEAR    1.95987E-02   -47.66    1.03440E-01   132.34
 -130.00    15.00     -35.35  -20.07  -19.95    0.00000   -80.23  LINEAR    1.31911E-02    20.17    7.65883E-02  -159.83
 -125.00    15.00     -28.66  -12.39  -12.29    0.00000   -81.26  LINEAR    2.84931E-02    20.28    1.85394E-01  -159.72
 -120.00    15.00     -26.56   -9.10   -9.02    0.00000   -82.37  LINEAR    3.63033E-02     1.68    2.70971E-01  -178.32
 -115.00    15.00     -26.71   -7.79   -7.74    0.00000   -83.54  LINEAR    3.56605E-02   -16.39    3.14910E-01   163.61
 -110.00    15.00     -28.39   -7.63   -7.60    0.00000   -84.76  LINEAR    2.93906E-02   -31.59    3.20704E-01   148.41
 -105.00    15.00     -31.35   -8.17   -8.15    0.00000   -86.03  LINEAR    2.08972E-02   -43.37    3.01327E-01   136.63
 -100.00    15.00     -35.68   -9.04   -9.03    0.00000   -87.34  LINEAR    1.26948E-02   -51.60    2.72836E-01   128.40
  -95.00    15.00     -42.45   -9.82   -9.81    0.00000   -88.66  LINEAR    5.82543E-03   -56.38    2.49448E-01   123.62
  -90.00    15.00    -999.99  -10.13  -10.13    0.00000   -90.00  LINEAR    3.28967E-13   -57.93    2.40568E-01   122.07
  -85.00    15.00     -42.45   -9.82   -9.81    0.00000    88.66  LINEAR    5.82543E-03   123.62    2.49448E-01   123.62
  -80.00    15.00     -35.68   -9.04   -9.03    0.00000    87.34  LINEAR    1.26948E-02   128.40    2.72836E-01   128.40
  -75.00    15.00     -31.35   -8.17   -8.15    0.00000    86.03  LINEAR    2.08972E-02   136.63    3.01327E-01   136.63
  -70.00    15.00     -28.39   -7.63   -7.60    0.00000    84.76  LINEAR    2.93906E-02   148.41    3.20704E-01   148.41
  -65.00    15.00     -26.71   -7.79   -7.74    0.00000    83.54  LINEAR    3.56605E-02   163.61    3.14910E-01   163.61
  -60.00    15.00     -26.56   -9.10   -9.02    0.00000    82.37  LINEAR    3.63033E-02  -178.32    2.70971E-01  -178.32
  -55.00    15.00     -28.66  -12.39  -12.29    0.00000    81.26  LINEAR    2.84931E-02  -159.72    1.85394E-01  -159.72
  -50.00    15.00     -35.35  -20.07  -19.95    0.00000    80.23  LINEAR    1.31911E-02  -159.83    7.65883E-02  -159.83
  -45.00    15.00     -31.91  -17.46  -17.31    0.00000    79.27  LINEAR    1.95987E-02   132.34    1.03440E-01   132.34
  -40.00    15.00     -24.37  -10.61  -10.43    0.00000    78.40  LINEAR    4.67083E-02   152.32    2.27556E-01   152.32
  -35.00    15.00     -20.49   -7.32   -7.12    0.00000    77.62  LINEAR    7.29733E-02  -170.03    3.32466E-01  -170.03
  -30.00    15.00     -18.49   -5.80   -5.58    0.00000    76.94  LINEAR    9.18773E-02  -127.39    3.95936E-01  -127.39
  -25.00    15.00     -18.14   -5.85   -5.60    0.00000    76.35  LINEAR    9.56375E-02   -83.78    3.93822E-01   -83.78
  -20.00    15.00     -20.15   -8.17   -7.90    0.00000    75.87  LINEAR    7.59424E-02   -42.45    3.01610E-01   -42.45
  -15.00    15.00     -27.30  -15.56  -15.27    0.00000    75.49  LINEAR    3.33422E-02   -15.24    1.28824E-01   -15.24
  -10.00    15.00     -28.18  -16.61  -16.32    0.00000    75.22  LINEAR    3.01140E-02   -92.02    1.14121E-01   -92.02
   -5.00    15.00     -21.65  -10.18   -9.88    0.00000    75.05  LINEAR    6.38634E-02   -66.56    2.39252E-01   -66.56
    0.00    15.00     -22.87  -11.43  -11.13    0.00000    75.00  LINEAR    5.54914E-02   -20.54    2.07097E-01   -20.54
 -180.00    20.00     -20.45  -11.67  -11.13    0.00000   -70.00  LINEAR    7.33299E-02   159.46    2.01472E-01   -20.54
 -175.00    20.00     -19.17  -10.36   -9.83    0.00000   -70.07  LINEAR    8.49313E-02   114.52    2.34238E-01   -65.48
 -170.00    20.00     -25.11  -16.20  -15.67    0.00000   -70.28  LINEAR    4.28843E-02    87.77    1.19641E-01   -92.23
 -165.00    20.00     -25.98  -16.90  -16.39    0.00000   -70.63  LINEAR    3.87924E-02   164.22    1.10341E-01   -15.78
 -160.00    20.00     -18.22   -8.90   -8.42    0.00000   -71.12  LINEAR    9.47964E-02   141.87    2.77166E-01   -38.13
 -155.00    20.00     -15.90   -6.27   -5.82    0.00000   -71.74  LINEAR    1.23759E-01   102.46    3.75176E-01   -77.54
 -150.00    20.00     -15.98   -5.95   -5.54    0.00000   -72.50  LINEAR    1.22664E-01    60.44    3.89152E-01  -119.56
 -145.00    20.00     -17.65   -7.14   -6.77    0.00000   -73.40  LINEAR    1.01227E-01    18.93    3.39520E-01  -161.07
 -140.00    20.00     -20.92   -9.82   -9.50    0.00000   -74.42  LINEAR    6.94914E-02   -18.85    2.49236E-01   161.15
 -135.00    20.00     -26.85  -15.06  -14.78    0.00000   -75.57  LINEAR    3.51053E-02   -45.93    1.36402E-01   134.07
 -130.00    20.00     -35.94  -23.33  -23.10    0.00000   -76.83  LINEAR    1.23185E-02    -9.20    5.26533E-02   170.80
 -125.00    20.00     -28.88  -15.27  -15.09    0.00000   -78.21  LINEAR    2.77788E-02    26.33    1.33063E-01  -153.67
 -120.00    20.00     -25.60  -10.80  -10.66    0.00000   -79.69  LINEAR    4.05436E-02    11.85    2.22785E-01  -168.15
 -115.00    20.00     -25.04   -8.78   -8.68    0.00000   -81.26  LINEAR    4.32287E-02    -5.10    2.81033E-01   174.90
 -110.00    20.00     -26.12   -8.02   -7.96    0.00000   -82.90  LINEAR    3.81649E-02   -19.88    3.06582E-01   160.12
 -105.00    20.00     -28.51   -7.99   -7.95    0.00000   -84.62  LINEAR    2.89949E-02   -31.55    3.07794E-01   148.45
 -100.00    20.00     -32.29   -8.31   -8.29    0.00000   -86.38  LINEAR    1.87553E-02   -39.87    2.96748E-01   140.13
  -95.00    20.00     -38.64   -8.66   -8.66    0.00000   -88.18  LINEAR    9.03642E-03   -44.82    2.84862E-01   135.18
  -90.00    20.00    -999.99   -8.81   -8.81    0.00000   -90.00  LINEAR    5.20058E-13   -46.46    2.79979E-01   133.54
  -85.00    20.00     -38.64   -8.66   -8.66    0.00000    88.18  LINEAR    9.03642E-03   135.18    2.84862E-01   135.18
  -80.00    20.00     -32.29   -8.31   -8.29    0.00000    86.38  LINEAR    1.87553E-02   140.13    2.96748E-01   140.13
  -75.00    20.00     -28.51   -7.99   -7.95    0.00000    84.62  LINEAR    2.89949E-02   148.45    3.07794E-01   148.45
  -70.00    20.00     -26.12   -8.02   -7.96    0.00000    82.90  LINEAR    3.81649E-02   160.12    3.06582E-01   160.12
  -65.00    20.00     -25.04   -8.78   -8.68    0.00000    81.26  LINEAR    4.32287E-02   174.90    2.81033E-01   174.90
  -60.00    20.00     -25.60  -10.80  -10.66    0.00000    79.69  LINEAR    4.05436E-02  -168.15    2.22785E-01  -168.15
  -55.00    20.00     -28.88  -15.27  -15.09    0.00000    78.21  LINEAR    2.77788E-02  -153.67    1.33063E-01  -153.67
  -50.00    20.00     -35.94  -23.33  -23.10    0.00000    76.83  LINEAR    1.23185E-02   170.80    5.26533E-02   170.80
  -45.00    20.00     -26.85  -15.06  -14.78    0.00000    75.57  LINEAR    3.51053E-02   134.07    1.36402E-01   134.07
  -40.00    20.00     -20.92   -9.82   -9.50    0.00000    74.42  LINEAR    6.94914E-02   161.15    2.49236E-01   161.15
  -35.00    20.00     -17.65   -7.14   -6.77    0.00000    73.40  LINEAR    1.01227E-01  -161.07    3.39520E-01  -161.07
  -30.00    20.00     -15.98   -5.95   -5.54    0.00000    72.50  LINEAR    1.22664E-01  -119.56    3.89152E-01  -119.56
[...]
  -70.00   340.00     -26.12   -8.02   -7.96    0.00000   -82.90  LINEAR    3.81649E-02   -19.88    3.06582E-01   160.12
  -65.00   340.00     -25.04   -8.78   -8.68    0.00000   -81.26  LINEAR    4.32287E-02    -5.10    2.81033E-01   174.90
  -60.00   340.00     -25.60  -10.80  -10.66    0.00000   -79.69  LINEAR    4.05436E-02    11.85    2.22785E-01  -168.15
  -55.00   340.00     -28.88  -15.27  -15.09    0.00000   -78.21  LINEAR    2.77788E-02    26.33    1.33063E-01  -153.67
  -50.00   340.00     -35.94  -23.33  -23.10    0.00000   -76.83  LINEAR    1.23185E-02    -9.20    5.26533E-02   170.80
  -45.00   340.00     -26.85  -15.06  -14.78    0.00000   -75.57  LINEAR    3.51053E-02   -45.93    1.36402E-01   134.07
  -40.00   340.00     -20.92   -9.82   -9.50    0.00000   -74.42  LINEAR    6.94914E-02   -18.85    2.49236E-01   161.15
  -35.00   340.00     -17.65   -7.14   -6.77    0.00000   -73.40  LINEAR    1.01227E-01    18.93    3.39520E-01  -161.07
  -30.00   340.00     -15.98   -5.95   -5.54    0.00000   -72.50  LINEAR    1.22664E-01    60.44    3.89152E-01  -119.56
  -25.00   340.00     -15.90   -6.27   -5.82    0.00000   -71.74  LINEAR    1.23759E-01   102.46    3.75176E-01   -77.54
  -20.00   340.00     -18.22   -8.90   -8.42    0.00000   -71.12  LINEAR    9.47964E-02   141.87    2.77166E-01   -38.13
  -15.00   340.00     -25.98  -16.90  -16.39    0.00000   -70.63  LINEAR    3.87924E-02   164.22    1.10341E-01   -15.78
  -10.00   340.00     -25.11  -16.20  -15.67    0.00000   -70.28  LINEAR    4.28843E-02    87.77    1.19641E-01   -92.23
   -5.00   340.00     -19.17  -10.36   -9.83    0.00000   -70.07  LINEAR    8.49313E-02   114.52    2.34238E-01   -65.48
    0.00   340.00     -20.45  -11.67  -11.13    0.00000   -70.00  LINEAR    7.33299E-02   159.46    2.01472E-01   -20.54
 -180.00   345.00     -22.87  -11.43  -11.13    0.00000    75.00  LINEAR    5.54914E-02   -20.54    2.07097E-01   -20.54
 -175.00   345.00     -21.65  -10.18   -9.88    0.00000    75.05  LINEAR    6.38634E-02   -66.56    2.39252E-01   -66.56
 -170.00   345.00     -28.18  -16.61  -16.32    0.00000    75.22  LINEAR    3.01140E-02   -92.02    1.14121E-01   -92.02
 -165.00   345.00     -27.30  -15.56  -15.27    0.00000    75.49  LINEAR    3.33422E-02   -15.24    1.28824E-01   -15.24
 -160.00   345.00     -20.15   -8.17   -7.90    0.00000    75.87  LINEAR    7.59424E-02   -42.45    3.01610E-01   -42.45
 -155.00   345.00     -18.14   -5.85   -5.60    0.00000    76.35  LINEAR    9.56375E-02   -83.78    3.93822E-01   -83.78
 -150.00   345.00     -18.49   -5.80   -5.58    0.00000    76.94  LINEAR    9.18773E-02  -127.39    3.95936E-01  -127.39
 -145.00   345.00     -20.49   -7.32   -7.12    0.00000    77.62  LINEAR    7.29733E-02  -170.03    3.32466E-01  -170.03
 -140.00   345.00     -24.37  -10.61  -10.43    0.00000    78.40  LINEAR    4.67083E-02   152.32    2.27556E-01   152.32
 -135.00   345.00     -31.91  -17.46  -17.31    0.00000    79.27  LINEAR    1.95987E-02   132.34    1.03440E-01   132.34
 -130.00   345.00     -35.35  -20.07  -19.95    0.00000    80.23  LINEAR    1.31911E-02  -159.83    7.65883E-02  -159.83
 -125.00   345.00     -28.66  -12.39  -12.29    0.00000    81.26  LINEAR    2.84931E-02  -159.72    1.85394E-01  -159.72
 -120.00   345.00     -26.56   -9.10   -9.02    0.00000    82.37  LINEAR    3.63033E-02  -178.32    2.70971E-01  -178.32
 -115.00   345.00     -26.71   -7.79   -7.74    0.00000    83.54  LINEAR    3.56605E-02   163.61    3.14910E-01   163.61
 -110.00   345.00     -28.39   -7.63   -7.60    0.00000    84.76  LINEAR    2.93906E-02   148.41    3.20704E-01   148.41
 -105.00   345.00     -31.35   -8.17   -8.15    0.00000    86.03  LINEAR    2.08972E-02   136.63    3.01327E-01   136.63
 -100.00   345.00     -35.68   -9.04   -9.03    0.00000    87.34  LINEAR    1.26948E-02   128.40    2.72836E-01   128.40
  -95.00   345.00     -42.45   -9.82   -9.81    0.00000    88.66  LINEAR    5.82543E-03   123.62    2.49448E-01   123.62
  -90.00   345.00    -999.99  -10.13  -10.13    0.00000    90.00  LINEAR    3.28967E-13   122.07    2.40568E-01   122.07
  -85.00   345.00     -42.45   -9.82   -9.81    0.00000   -88.66  LINEAR    5.82543E-03   -56.38    2.49448E-01   123.62
  -80.00   345.00     -35.68   -9.04   -9.03    0.00000   -87.34  LINEAR    1.26948E-02   -51.60    2.72836E-01   128.40
  -75.00   345.00     -31.35   -8.17   -8.15    0.00000   -86.03  LINEAR    2.08972E-02   -43.37    3.01327E-01   136.63
  -70.00   345.00     -28.39   -7.63   -7.60    0.00000   -84.76  LINEAR    2.93906E-02   -31.59    3.20704E-01   148.41
  -65.00   345.00     -26.71   -7.79   -7.74    0.00000   -83.54  LINEAR    3.56605E-02   -16.39    3.14910E-01   163.61
  -60.00   345.00     -26.56   -9.10   -9.02    0.00000   -82.37  LINEAR    3.63033E-02     1.68    2.70971E-01  -178.32
  -55.00   345.00     -28.66  -12.39  -12.29    0.00000   -81.26  LINEAR    2.84931E-02    20.28    1.85394E-01  -159.72
  -50.00   345.00     -35.35  -20.07  -19.95    0.00000   -80.23  LINEAR    1.31911E-02    20.17    7.65883E-02  -159.83
  -45.00   345.00     -31.91  -17.46  -17.31    0.00000   -79.27  LINEAR    1.95987E-02   -47.66    1.03440E-01   132.34
  -40.00   345.00     -24.37  -10.61  -10.43    0.00000   -78.40  LINEAR    4.67083E-02   -27.68    2.27556E-01   152.32
  -35.00   345.00     -20.49   -7.32   -7.12    0.00000   -77.62  LINEAR    7.29733E-02     9.97    3.32466E-01  -170.03
  -30.00   345.00     -18.49   -5.80   -5.58    0.00000   -76.94  LINEAR    9.18773E-02    52.61    3.95936E-01  -127.39
  -25.00   345.00     -18.14   -5.85   -5.60    0.00000   -76.35  LINEAR    9.56375E-02    96.22    3.93822E-01   -83.78
  -20.00   345.00     -20.15   -8.17   -7.90    0.00000   -75.87  LINEAR    7.59424E-02   137.55    3.01610E-01   -42.45
  -15.00   345.00     -27.30  -15.56  -15.27    0.00000   -75.49  LINEAR    3.33422E-02   164.76    1.28824E-01   -15.24
  -10.00   345.00     -28.18  -16.61  -16.32    0.00000   -75.22  LINEAR    3.01140E-02    87.98    1.14121E-01   -92.02
   -5.00   345.00     -21.65  -10.18   -9.88    0.00000   -75.05  LINEAR    6.38634E-02   113.44    2.39252E-01   -66.56
    0.00   345.00     -22.87  -11.43  -11.13    0.00000   -75.00  LINEAR    5.54914E-02   159.46    2.07097E-01   -20.54
 -180.00   350.00     -26.34  -11.26  -11.13    0.00000    80.00  LINEAR    3.72306E-02   -20.54    2.11145E-01   -20.54
 -175.00   350.00     -25.16  -10.05   -9.92    0.00000    80.04  LINEAR    4.26370E-02   -67.32    2.42730E-01   -67.32
 -170.00   350.00     -32.14  -16.94  -16.81    0.00000    80.15  LINEAR    1.90818E-02   -91.56    1.09888E-01   -91.56
 -165.00   350.00     -30.03  -14.65  -14.53    0.00000    80.33  LINEAR    2.43390E-02   -15.45    1.42902E-01   -15.45
 -160.00   350.00     -23.29   -7.68   -7.56    0.00000    80.59  LINEAR    5.28765E-02   -45.64    3.19123E-01   -45.64
 -155.00   350.00     -21.51   -5.58   -5.47    0.00000    80.92  LINEAR    6.49369E-02   -88.31    4.06347E-01   -88.31
 -150.00   350.00     -22.05   -5.73   -5.63    0.00000    81.32  LINEAR    6.09779E-02  -133.04    3.99322E-01  -133.04
 -145.00   350.00     -24.31   -7.51   -7.42    0.00000    81.78  LINEAR    4.69992E-02  -176.41    3.25392E-01  -176.41
 -140.00   350.00     -28.72  -11.33  -11.25    0.00000    82.31  LINEAR    2.83018E-02   146.45    2.09528E-01   146.45
 -135.00   350.00     -37.71  -19.62  -19.56    0.00000    82.89  LINEAR    1.00551E-02   137.18    8.06460E-02   137.18
 -130.00   350.00     -36.01  -17.10  -17.05    0.00000    83.53  LINEAR    1.22214E-02  -153.98    1.07829E-01  -153.98
 -125.00   350.00     -30.68  -10.78  -10.73    0.00000    84.22  LINEAR    2.25854E-02  -165.65    2.23315E-01  -165.65
 -120.00   350.00     -29.26   -8.16   -8.13    0.00000    84.96  LINEAR    2.65958E-02   174.08    3.01664E-01   174.08
 -115.00   350.00     -29.91   -7.36   -7.33    0.00000    85.74  LINEAR    2.46689E-02   155.48    3.31041E-01   155.48
 -110.00   350.00     -32.08   -7.69   -7.67    0.00000    86.55  LINEAR    1.92184E-02   140.13    3.18674E-01   140.13
 -105.00   350.00     -35.59   -8.77   -8.76    0.00000    87.39  LINEAR    1.28381E-02   128.45    2.81310E-01   128.45
 -100.00   350.00     -40.50  -10.22  -10.22    0.00000    88.25  LINEAR    7.28934E-03   120.56    2.38067E-01   120.56
  -95.00   350.00     -47.78  -11.51  -11.51    0.00000    89.12  LINEAR    3.15301E-03   116.23    2.05168E-01   116.23
  -90.00   350.00    -999.99  -12.04  -12.04    0.00000    90.00  LINEAR    1.73699E-13   114.90    1.93027E-01   114.90
  -85.00   350.00     -47.78  -11.51  -11.51    0.00000   -89.12  LINEAR    3.15301E-03   -63.77    2.05168E-01   116.23
  -80.00   350.00     -40.50  -10.22  -10.22    0.00000   -88.25  LINEAR    7.28934E-03   -59.44    2.38067E-01   120.56
  -75.00   350.00     -35.59   -8.77   -8.76    0.00000   -87.39  LINEAR    1.28381E-02   -51.55    2.81310E-01   128.45
  -70.00   350.00     -32.08   -7.69   -7.67    0.00000   -86.55  LINEAR    1.92184E-02   -39.87    3.18674E-01   140.13
  -65.00   350.00     -29.91   -7.36   -7.33    0.00000   -85.74  LINEAR    2.46689E-02   -24.52    3.31041E-01   155.48
  -60.00   350.00     -29.26   -8.16   -8.13    0.00000   -84.96  LINEAR    2.65958E-02    -5.92    3.01664E-01   174.08
  -55.00   350.00     -30.68  -10.78  -10.73    0.00000   -84.22  LINEAR    2.25854E-02    14.35    2.23315E-01  -165.65
  -50.00   350.00     -36.01  -17.10  -17.05    0.00000   -83.53  LINEAR    1.22214E-02    26.02    1.07829E-01  -153.98
  -45.00   350.00     -37.71  -19.62  -19.56    0.00000   -82.89  LINEAR    1.00551E-02   -42.82    8.06460E-02   137.18
  -40.00   350.00     -28.72  -11.33  -11.25    0.00000   -82.31  LINEAR    2.83018E-02   -33.55    2.09528E-01   146.45
  -35.00   350.00     -24.31   -7.51   -7.42    0.00000   -81.78  LINEAR    4.69992E-02     3.59    3.25392E-01  -176.41
  -30.00   350.00     -22.05   -5.73   -5.63    0.00000   -81.32  LINEAR    6.09779E-02    46.96    3.99322E-01  -133.04
  -25.00   350.00     -21.51   -5.58   -5.47    0.00000   -80.92  LINEAR    6.49369E-02    91.69    4.06347E-01   -88.31
  -20.00   350.00     -23.29   -7.68   -7.56    0.00000   -80.59  LINEAR    5.28765E-02   134.36    3.19123E-01   -45.64
  -15.00   350.00     -30.03  -14.65  -14.53    0.00000   -80.33  LINEAR    2.43390E-02   164.55    1.42902E-01   -15.45
  -10.00   350.00     -32.14  -16.94  -16.81    0.00000   -80.15  LINEAR    1.90818E-02    88.44    1.09888E-01   -91.56
   -5.00   350.00     -25.16  -10.05   -9.92    0.00000   -80.04  LINEAR    4.26370E-02   112.68    2.42730E-01   -67.32
    0.00   350.00     -26.34  -11.26  -11.13    0.00000   -80.00  LINEAR    3.72306E-02   159.46    2.11145E-01   -20.54
 -180.00   355.00     -32.32  -11.16  -11.13    0.00000    85.00  LINEAR    1.86864E-02   -20.54    2.13587E-01   -20.54
 -175.00   355.00     -31.17   -9.98   -9.95    0.00000    85.02  LINEAR    2.13334E-02   -67.78    2.44774E-01   -67.78
 -170.00   355.00     -38.44  -17.15  -17.12    0.00000    85.08  LINEAR    9.24058E-03   -91.14    1.07250E-01   -91.14
 -165.00   355.00     -35.60  -14.14  -14.11    0.00000    85.17  LINEAR    1.28171E-02   -15.76    1.51668E-01   -15.76
 -160.00   355.00     -29.10   -7.40   -7.37    0.00000    85.30  LINEAR    2.70993E-02   -47.59    3.29625E-01   -47.59
 -155.00   355.00     -27.44   -5.43   -5.40    0.00000    85.47  LINEAR    3.27882E-02   -91.06    4.13514E-01   -91.06
 -150.00   355.00     -28.11   -5.70   -5.67    0.00000    85.67  LINEAR    3.03633E-02  -136.46    4.00744E-01  -136.46
 -145.00   355.00     -30.54   -7.64   -7.62    0.00000    85.90  LINEAR    2.29547E-02   179.78    3.20298E-01   179.78
 -140.00   355.00     -35.31  -11.84  -11.82    0.00000    86.17  LINEAR    1.32499E-02   143.18    1.97699E-01   143.18
 -135.00   355.00     -45.12  -20.95  -20.93    0.00000    86.46  LINEAR    4.28488E-03   144.66    6.92631E-02   144.66
 -130.00   355.00     -40.54  -15.54  -15.52    0.00000    86.78  LINEAR    7.26015E-03  -153.77    1.29100E-01  -153.77
 -125.00   355.00     -35.94   -9.95   -9.94    0.00000    87.13  LINEAR    1.23308E-02  -169.57    2.45725E-01  -169.57
 -120.00   355.00     -34.89   -7.71   -7.70    0.00000    87.50  LINEAR    1.39066E-02   169.44    3.17905E-01   169.44
 -115.00   355.00     -35.85   -7.21   -7.21    0.00000    87.88  LINEAR    1.24475E-02   150.61    3.36654E-01   150.61
 -110.00   355.00     -38.36   -7.88   -7.88    0.00000    88.29  LINEAR    9.32671E-03   135.24    3.11692E-01   135.24
 -105.00   355.00     -42.28   -9.38   -9.38    0.00000    88.70  LINEAR    5.93765E-03   123.75    2.62220E-01   123.75
 -100.00   355.00     -47.71  -11.34  -11.34    0.00000    89.13  LINEAR    3.17930E-03   116.32    2.09271E-01   116.32
  -95.00   355.00     -55.49  -13.13  -13.13    0.00000    89.56  LINEAR    1.29816E-03   112.66    1.70248E-01   112.66
  -90.00   355.00    -999.99  -13.89  -13.89    0.00000    90.00  LINEAR    6.96710E-14   111.70    1.56041E-01   111.70
  -85.00   355.00     -55.49  -13.13  -13.13    0.00000   -89.56  LINEAR    1.29816E-03   -67.34    1.70248E-01   112.66
  -80.00   355.00     -47.71  -11.34  -11.34    0.00000   -89.13  LINEAR    3.17930E-03   -63.68    2.09271E-01   116.32
  -75.00   355.00     -42.28   -9.38   -9.38    0.00000   -88.70  LINEAR    5.93765E-03   -56.25    2.62220E-01   123.75
  -70.00   355.00     -38.36   -7.88   -7.88    0.00000   -88.29  LINEAR    9.32671E-03   -44.76    3.11692E-01   135.24
  -65.00   355.00     -35.85   -7.21   -7.21    0.00000   -87.88  LINEAR    1.24475E-02   -29.39    3.36654E-01   150.61
  -60.00   355.00     -34.89   -7.71   -7.70    0.00000   -87.50  LINEAR    1.39066E-02   -10.56    3.17905E-01   169.44
  -55.00   355.00     -35.94   -9.95   -9.94    0.00000   -87.13  LINEAR    1.23308E-02    10.43    2.45725E-01  -169.57
  -50.00   355.00     -40.54  -15.54  -15.52    0.00000   -86.78  LINEAR    7.26015E-03    26.23    1.29100E-01  -153.77
  -45.00   355.00     -45.12  -20.95  -20.93    0.00000   -86.46  LINEAR    4.28488E-03   -35.34    6.92631E-02   144.66
  -40.00   355.00     -35.31  -11.84  -11.82    0.00000   -86.17  LINEAR    1.32499E-02   -36.82    1.97699E-01   143.18
  -35.00   355.00     -30.54   -7.64   -7.62    0.00000   -85.90  LINEAR    2.29547E-02    -0.22    3.20298E-01   179.78
  -30.00   355.00     -28.11   -5.70   -5.67    0.00000   -85.67  LINEAR    3.03633E-02    43.54    4.00744E-01  -136.46
  -25.00   355.00     -27.44   -5.43   -5.40    0.00000   -85.47  LINEAR    3.27882E-02    88.94    4.13514E-01   -91.06
  -20.00   355.00     -29.10   -7.40   -7.37    0.00000   -85.30  LINEAR    2.70993E-02   132.41    3.29625E-01   -47.59
  -15.00   355.00     -35.60  -14.14  -14.11    0.00000   -85.17  LINEAR    1.28171E-02   164.24    1.51668E-01   -15.76
  -10.00   355.00     -38.44  -17.15  -17.12    0.00000   -85.08  LINEAR    9.24058E-03    88.86    1.07250E-01   -91.14
   -5.00   355.00     -31.17   -9.98   -9.95    0.00000   -85.02  LINEAR    2.13334E-02   112.22    2.44774E-01   -67.78
    0.00   355.00     -32.32  -11.16  -11.13    0.00000   -85.00  LINEAR    1.86864E-02   159.46    2.13587E-01   -20.54
 -180.00   360.00    -999.99  -11.13  -11.13    0.00000   -90.00  LINEAR    4.37674E-12   159.46    2.14402E-01   -20.54
 -175.00   360.00    -999.99   -9.96   -9.96    0.00000   -90.00  LINEAR    4.99141E-12   112.06    2.45447E-01   -67.94
 -170.00   360.00    -999.99  -17.22  -17.22    0.00000   -90.00  LINEAR    2.13814E-12    89.03    1.06356E-01   -90.97
 -165.00   360.00    -999.99  -13.97  -13.97    0.00000   -90.00  LINEAR    3.04920E-12   164.10    1.54640E-01   -15.90
 -160.00   360.00    -999.99   -7.30   -7.30    0.00000   -90.00  LINEAR    6.39013E-12   131.75    3.33122E-01   -48.25
 -155.00   360.00    -999.99   -5.38   -5.38    0.00000   -90.00  LINEAR    7.69352E-12    88.01    4.15842E-01   -91.99
 -150.00   360.00    -999.99   -5.69   -5.69    0.00000   -90.00  LINEAR    7.09117E-12    42.40    4.01113E-01  -137.60
 -145.00   360.00    -999.99   -7.69   -7.69    0.00000   -90.00  LINEAR    5.32517E-12    -1.48    3.18455E-01   178.52
 -140.00   360.00    -999.99  -12.02  -12.02    0.00000   -90.00  LINEAR    3.02734E-12   -37.85    1.93592E-01   142.15
 -135.00   360.00    -999.99  -21.33  -21.33    0.00000   -90.00  LINEAR    9.56182E-13   -31.83    6.62422E-02   148.17
 -130.00   360.00    -999.99  -15.06  -15.06    0.00000   -90.00  LINEAR    1.79058E-12    25.96    1.36460E-01  -154.04
 -125.00   360.00    -999.99   -9.69   -9.69    0.00000   -90.00  LINEAR    2.96328E-12     9.09    2.53081E-01  -170.91
 -120.00   360.00    -999.99   -7.57   -7.57    0.00000   -90.00  LINEAR    3.29561E-12   -12.12    3.22883E-01   167.88
 -115.00   360.00    -999.99   -7.18   -7.18    0.00000   -90.00  LINEAR    2.91392E-12   -31.01    3.37760E-01   148.99
 -110.00   360.00    -999.99   -7.98   -7.98    0.00000   -90.00  LINEAR    2.15259E-12   -46.37    3.08311E-01   133.63
 -105.00   360.00    -999.99   -9.64   -9.64    0.00000   -90.00  LINEAR    1.34511E-12   -57.76    2.54590E-01   122.24
 -100.00   360.00    -999.99  -11.81  -11.81    0.00000   -90.00  LINEAR    7.02856E-13   -64.96    1.98279E-01   115.04
  -95.00   360.00    -999.99  -13.83  -13.83    0.00000   -90.00  LINEAR    2.79632E-13   -68.25    1.57170E-01   111.75
  -90.00   360.00    -999.99  -14.69  -14.69    0.00000   -90.00  LINEAR    1.48222E-23   -68.98    1.42276E-01   111.02
  -85.00   360.00    -999.99  -13.83  -13.83    0.00000    90.00  LINEAR    2.79632E-13   111.75    1.57170E-01   111.75
  -80.00   360.00    -999.99  -11.81  -11.81    0.00000    90.00  LINEAR    7.02856E-13   115.04    1.98279E-01   115.04
  -75.00   360.00    -999.99   -9.64   -9.64    0.00000    90.00  LINEAR    1.34511E-12   122.24    2.54590E-01   122.24
  -70.00   360.00    -999.99   -7.98   -7.98    0.00000    90.00  LINEAR    2.15259E-12   133.63    3.08311E-01   133.63
  -65.00   360.00    -999.99   -7.18   -7.18    0.00000    90.00  LINEAR    2.91392E-12   148.99    3.37760E-01   148.99
  -60.00   360.00    -999.99   -7.57   -7.57    0.00000    90.00  LINEAR    3.29561E-12   167.88    3.22883E-01   167.88
  -55.00   360.00    -999.99   -9.69   -9.69    0.00000    90.00  LINEAR    2.96328E-12  -170.91    2.53081E-01  -170.91
  -50.00   360.00    -999.99  -15.06  -15.06    0.00000    90.00  LINEAR    1.79058E-12  -154.04    1.36460E-01  -154.04
  -45.00   360.00    -999.99  -21.33  -21.33    0.00000    90.00  LINEAR    9.56182E-13   148.17    6.62422E-02   148.17
  -40.00   360.00    -999.99  -12.02  -12.02    0.00000    90.00  LINEAR    3.02734E-12   142.15    1.93592E-01   142.15
  -35.00   360.00    -999.99   -7.69   -7.69    0.00000    90.00  LINEAR    5.32517E-12   178.52    3.18455E-01   178.52
  -30.00   360.00    -999.99   -5.69   -5.69    0.00000    90.00  LINEAR    7.09117E-12  -137.60    4.01113E-01  -137.60
  -25.00   360.00    -999.99   -5.38   -5.38    0.00000    90.00  LINEAR    7.69352E-12   -91.99    4.15842E-01   -91.99
  -20.00   360.00    -999.99   -7.30   -7.30    0.00000    90.00  LINEAR    6.39013E-12   -48.25    3.33122E-01   -48.25
  -15.00   360.00    -999.99  -13.97  -13.97    0.00000    90.00  LINEAR    3.04920E-12   -15.90    1.54640E-01   -15.90
  -10.00   360.00    -999.99  -17.22  -17.22    0.00000    90.00  LINEAR    2.13814E-12   -90.97    1.06356E-01   -90.97
   -5.00   360.00    -999.99   -9.96   -9.96    0.00000    90.00  LINEAR    4.99141E-12   -67.94    2.45447E-01   -67.94
    0.00   360.00    -999.99  -11.13  -11.13    0.00000    90.00  LINEAR    4.37674E-12   -20.54    2.14402E-01   -20.54


   AVERAGE POWER GAIN= 9.93285E-01       SOLID ANGLE USED IN AVERAGING=( 4.0000)*PI STERADIANS.








 ***** DATA CARD NO. 18   EN   0    37    73  1003 -1.80000E+02  0.00000E+00  5.00000E+00  5.00000E+00  0.00000E+00  0.00000E+00

 RUN TIME =     0.266
