1



                                 *********************************************

                                    NUMERICAL ELECTROMAGNETICS CODE (NEC-2D)

                                 *********************************************




                                     - - - - COMMENTS - - - -


                          All Dimensions in Metres                                                   
                                                                                                     




                                 - - - STRUCTURE SPECIFICATION - - -

                                     COORDINATES MUST BE INPUT IN
                                     METERS OR BE SCALED TO METERS
                                     BEFORE STRUCTURE INPUT IS ENDED


  WIRE                                                                               NO. OF    FIRST  LAST     TAG
  NO.        X1         Y1         Z1          X2         Y2         Z2      RADIUS   SEG.     SEG.   SEG.     NO.
     1    0.00000   -0.01365    0.00000     0.00000    0.01365    0.00000    0.00080     21        1    21       1
     2    0.01189   -0.01278    0.00000     0.01189    0.01278    0.00000    0.00080     21       22    42       2
     3    0.01776   -0.01167    0.00000     0.01776    0.01167    0.00000    0.00080     21       43    63       3
     4    0.03123   -0.01123    0.00000     0.03123    0.01123    0.00000    0.00080     21       64    84       4
     5    0.05154   -0.01082    0.00000     0.05154    0.01082    0.00000    0.00080     21       85   105       5
     6    0.06992   -0.01077    0.00000     0.06992    0.01077    0.00000    0.00080     21      106   126       6
     7    0.08289   -0.00994    0.00000     0.08289    0.00994    0.00000    0.00080     21      127   147       7
     8    0.09699   -0.00938    0.00000     0.09699    0.00938    0.00000    0.00080     21      148   168       8

   TOTAL SEGMENTS USED=  168     NO. SEG. IN A SYMMETRIC CELL=  168     SYMMETRY FLAG=  0


         - MULTIPLE WIRE JUNCTIONS -
 JUNCTION    SEGMENTS  (- FOR END 1, + FOR END 2)
  NONE




                                 - - - - SEGMENTATION DATA - - - -

                                        COORDINATES IN METERS

                         I+ AND I- INDICATE THE SEGMENTS BEFORE AND AFTER I


  SEG.   COORDINATES OF SEG. CENTER     SEG.     ORIENTATION ANGLES    WIRE    CONNECTION DATA   TAG
  NO.       X         Y         Z       LENGTH     ALPHA     BETA      RADIUS    I-   I    I+    NO.
     1   0.00000  -0.01300   0.00000   0.00130    0.00000  90.00000   0.00080     0    1    2      1
     2   0.00000  -0.01170   0.00000   0.00130    0.00000  90.00000   0.00080     1    2    3      1
     3   0.00000  -0.01040   0.00000   0.00130    0.00000  90.00000   0.00080     2    3    4      1
     4   0.00000  -0.00910   0.00000   0.00130    0.00000  90.00000   0.00080     3    4    5      1
     5   0.00000  -0.00780   0.00000   0.00130    0.00000  90.00000   0.00080     4    5    6      1
     6   0.00000  -0.00650   0.00000   0.00130    0.00000  90.00000   0.00080     5    6    7      1
     7   0.00000  -0.00520   0.00000   0.00130    0.00000  90.00000   0.00080     6    7    8      1
     8   0.00000  -0.00390   0.00000   0.00130    0.00000  90.00000   0.00080     7    8    9      1
     9   0.00000  -0.00260   0.00000   0.00130    0.00000  90.00000   0.00080     8    9   10      1
    10   0.00000  -0.00130   0.00000   0.00130    0.00000  90.00000   0.00080     9   10   11      1
    11   0.00000   0.00000   0.00000   0.00130    0.00000  90.00000   0.00080    10   11   12      1
    12   0.00000   0.00130   0.00000   0.00130    0.00000  90.00000   0.00080    11   12   13      1
    13   0.00000   0.00260   0.00000   0.00130    0.00000  90.00000   0.00080    12   13   14      1
    14   0.00000   0.00390   0.00000   0.00130    0.00000  90.00000   0.00080    13   14   15      1
    15   0.00000   0.00520   0.00000   0.00130    0.00000  90.00000   0.00080    14   15   16      1
    16   0.00000   0.00650   0.00000   0.00130    0.00000  90.00000   0.00080    15   16   17      1
    17   0.00000   0.00780   0.00000   0.00130    0.00000  90.00000   0.00080    16   17   18      1
    18   0.00000   0.00910   0.00000   0.00130    0.00000  90.00000   0.00080    17   18   19      1
    19   0.00000   0.01040   0.00000   0.00130    0.00000  90.00000   0.00080    18   19   20      1
    20   0.00000   0.01170   0.00000   0.00130    0.00000  90.00000   0.00080    19   20   21      1
    21   0.00000   0.01300   0.00000   0.00130    0.00000  90.00000   0.00080    20   21    0      1
    22   0.01189  -0.01217   0.00000   0.00122    0.00000  90.00000   0.00080     0   22   23      2
    23   0.01189  -0.01095   0.00000   0.00122    0.00000  90.00000   0.00080    22   23   24      2
    24   0.01189  -0.00974   0.00000   0.00122    0.00000  90.00000   0.00080    23   24   25      2
    25   0.01189  -0.00852   0.00000   0.00122    0.00000  90.00000   0.00080    24   25   26      2
    26   0.01189  -0.00730   0.00000   0.00122    0.00000  90.00000   0.00080    25   26   27      2
    27   0.01189  -0.00609   0.00000   0.00122    0.00000  90.00000   0.00080    26   27   28      2
    28   0.01189  -0.00487   0.00000   0.00122    0.00000  90.00000   0.00080    27   28   29      2
    29   0.01189  -0.00365   0.00000   0.00122    0.00000  90.00000   0.00080    28   29   30      2
    30   0.01189  -0.00243   0.00000   0.00122    0.00000  90.00000   0.00080    29   30   31      2
    31   0.01189  -0.00122   0.00000   0.00122    0.00000  90.00000   0.00080    30   31   32      2
    32   0.01189   0.00000   0.00000   0.00122    0.00000  90.00000   0.00080    31   32   33      2
    33   0.01189   0.00122   0.00000   0.00122    0.00000  90.00000   0.00080    32   33   34      2
    34   0.01189   0.00243   0.00000   0.00122    0.00000  90.00000   0.00080    33   34   35      2
    35   0.01189   0.00365   0.00000   0.00122    0.00000  90.00000   0.00080    34   35   36      2
    36   0.01189   0.00487   0.00000   0.00122    0.00000  90.00000   0.00080    35   36   37      2
    37   0.01189   0.00609   0.00000   0.00122    0.00000  90.00000   0.00080    36   37   38      2
    38   0.01189   0.00730   0.00000   0.00122    0.00000  90.00000   0.00080    37   38   39      2
    39   0.01189   0.00852   0.00000   0.00122    0.00000  90.00000   0.00080    38   39   40      2
    40   0.01189   0.00974   0.00000   0.00122    0.00000  90.00000   0.00080    39   40   41      2
    41   0.01189   0.01095   0.00000   0.00122    0.00000  90.00000   0.00080    40   41   42      2
    42   0.01189   0.01217   0.00000   0.00122    0.00000  90.00000   0.00080    41   42    0      2
    43   0.01776  -0.01111   0.00000   0.00111    0.00000  90.00000   0.00080     0   43   44      3
    44   0.01776  -0.01000   0.00000   0.00111    0.00000  90.00000   0.00080    43   44   45      3
    45   0.01776  -0.00889   0.00000   0.00111    0.00000  90.00000   0.00080    44   45   46      3
    46   0.01776  -0.00778   0.00000   0.00111    0.00000  90.00000   0.00080    45   46   47      3
    47   0.01776  -0.00667   0.00000   0.00111    0.00000  90.00000   0.00080    46   47   48      3
    48   0.01776  -0.00556   0.00000   0.00111    0.00000  90.00000   0.00080    47   48   49      3
    49   0.01776  -0.00445   0.00000   0.00111    0.00000  90.00000   0.00080    48   49   50      3
    50   0.01776  -0.00333   0.00000   0.00111    0.00000  90.00000   0.00080    49   50   51      3
    51   0.01776  -0.00222   0.00000   0.00111    0.00000  90.00000   0.00080    50   51   52      3
    52   0.01776  -0.00111   0.00000   0.00111    0.00000  90.00000   0.00080    51   52   53      3
    53   0.01776   0.00000   0.00000   0.00111    0.00000  90.00000   0.00080    52   53   54      3
    54   0.01776   0.00111   0.00000   0.00111    0.00000  90.00000   0.00080    53   54   55      3
    55   0.01776   0.00222   0.00000   0.00111    0.00000  90.00000   0.00080    54   55   56      3
    56   0.01776   0.00333   0.00000   0.00111    0.00000  90.00000   0.00080    55   56   57      3
    57   0.01776   0.00445   0.00000   0.00111    0.00000  90.00000   0.00080    56   57   58      3
    58   0.01776   0.00556   0.00000   0.00111    0.00000  90.00000   0.00080    57   58   59      3
    59   0.01776   0.00667   0.00000   0.00111    0.00000  90.00000   0.00080    58   59   60      3
    60   0.01776   0.00778   0.00000   0.00111    0.00000  90.00000   0.00080    59   60   61      3
    61   0.01776   0.00889   0.00000   0.00111    0.00000  90.00000   0.00080    60   61   62      3
    62   0.01776   0.01000   0.00000   0.00111    0.00000  90.00000   0.00080    61   62   63      3
    63   0.01776   0.01111   0.00000   0.00111    0.00000  90.00000   0.00080    62   63    0      3
    64   0.03123  -0.01069   0.00000   0.00107    0.00000  90.00000   0.00080     0   64   65      4
    65   0.03123  -0.00962   0.00000   0.00107    0.00000  90.00000   0.00080    64   65   66      4
    66   0.03123  -0.00856   0.00000   0.00107    0.00000  90.00000   0.00080    65   66   67      4
    67   0.03123  -0.00749   0.00000   0.00107    0.00000  90.00000   0.00080    66   67   68      4
    68   0.03123  -0.00642   0.00000   0.00107    0.00000  90.00000   0.00080    67   68   69      4
    69   0.03123  -0.00535   0.00000   0.00107    0.00000  90.00000   0.00080    68   69   70      4
    70   0.03123  -0.00428   0.00000   0.00107    0.00000  90.00000   0.00080    69   70   71      4
    71   0.03123  -0.00321   0.00000   0.00107    0.00000  90.00000   0.00080    70   71   72      4
    72   0.03123  -0.00214   0.00000   0.00107    0.00000  90.00000   0.00080    71   72   73      4
    73   0.03123  -0.00107   0.00000   0.00107    0.00000  90.00000   0.00080    72   73   74      4
    74   0.03123   0.00000   0.00000   0.00107    0.00000  90.00000   0.00080    73   74   75      4
    75   0.03123   0.00107   0.00000   0.00107    0.00000  90.00000   0.00080    74   75   76      4
    76   0.03123   0.00214   0.00000   0.00107    0.00000  90.00000   0.00080    75   76   77      4
    77   0.03123   0.00321   0.00000   0.00107    0.00000  90.00000   0.00080    76   77   78      4
    78   0.03123   0.00428   0.00000   0.00107    0.00000  90.00000   0.00080    77   78   79      4
    79   0.03123   0.00535   0.00000   0.00107    0.00000  90.00000   0.00080    78   79   80      4
    80   0.03123   0.00642   0.00000   0.00107    0.00000  90.00000   0.00080    79   80   81      4
    81   0.03123   0.00749   0.00000   0.00107    0.00000  90.00000   0.00080    80   81   82      4
    82   0.03123   0.00856   0.00000   0.00107    0.00000  90.00000   0.00080    81   82   83      4
    83   0.03123   0.00962   0.00000   0.00107    0.00000  90.00000   0.00080    82   83   84      4
    84   0.03123   0.01069   0.00000   0.00107    0.00000  90.00000   0.00080    83   84    0      4
    85   0.05154  -0.01031   0.00000   0.00103    0.00000  90.00000   0.00080     0   85   86      5
    86   0.05154  -0.00928   0.00000   0.00103    0.00000  90.00000   0.00080    85   86   87      5
    87   0.05154  -0.00824   0.00000   0.00103    0.00000  90.00000   0.00080    86   87   88      5
    88   0.05154  -0.00721   0.00000   0.00103    0.00000  90.00000   0.00080    87   88   89      5
    89   0.05154  -0.00618   0.00000   0.00103    0.00000  90.00000   0.00080    88   89   90      5
    90   0.05154  -0.00515   0.00000   0.00103    0.00000  90.00000   0.00080    89   90   91      5
    91   0.05154  -0.00412   0.00000   0.00103    0.00000  90.00000   0.00080    90   91   92      5
    92   0.05154  -0.00309   0.00000   0.00103    0.00000  90.00000   0.00080    91   92   93      5
    93   0.05154  -0.00206   0.00000   0.00103    0.00000  90.00000   0.00080    92   93   94      5
    94   0.05154  -0.00103   0.00000   0.00103    0.00000  90.00000   0.00080    93   94   95      5
    95   0.05154   0.00000   0.00000   0.00103    0.00000  90.00000   0.00080    94   95   96      5
    96   0.05154   0.00103   0.00000   0.00103    0.00000  90.00000   0.00080    95   96   97      5
    97   0.05154   0.00206   0.00000   0.00103    0.00000  90.00000   0.00080    96   97   98      5
    98   0.05154   0.00309   0.00000   0.00103    0.00000  90.00000   0.00080    97   98   99      5
    99   0.05154   0.00412   0.00000   0.00103    0.00000  90.00000   0.00080    98   99  100      5
   100   0.05154   0.00515   0.00000   0.00103    0.00000  90.00000   0.00080    99  100  101      5
   101   0.05154   0.00618   0.00000   0.00103    0.00000  90.00000   0.00080   100  101  102      5
   102   0.05154   0.00721   0.00000   0.00103    0.00000  90.00000   0.00080   101  102  103      5
   103   0.05154   0.00824   0.00000   0.00103    0.00000  90.00000   0.00080   102  103  104      5
   104   0.05154   0.00928   0.00000   0.00103    0.00000  90.00000   0.00080   103  104  105      5
   105   0.05154   0.01031   0.00000   0.00103    0.00000  90.00000   0.00080   104  105    0      5
   106   0.06992  -0.01026   0.00000   0.00103    0.00000  90.00000   0.00080     0  106  107      6
   107   0.06992  -0.00923   0.00000   0.00103    0.00000  90.00000   0.00080   106  107  108      6
   108   0.06992  -0.00821   0.00000   0.00103    0.00000  90.00000   0.00080   107  108  109      6
   109   0.06992  -0.00718   0.00000   0.00103    0.00000  90.00000   0.00080   108  109  110      6
   110   0.06992  -0.00616   0.00000   0.00103    0.00000  90.00000   0.00080   109  110  111      6
   111   0.06992  -0.00513   0.00000   0.00103    0.00000  90.00000   0.00080   110  111  112      6
   112   0.06992  -0.00410   0.00000   0.00103    0.00000  90.00000   0.00080   111  112  113      6
   113   0.06992  -0.00308   0.00000   0.00103    0.00000  90.00000   0.00080   112  113  114      6
   114   0.06992  -0.00205   0.00000   0.00103    0.00000  90.00000   0.00080   113  114  115      6
   115   0.06992  -0.00103   0.00000   0.00103    0.00000  90.00000   0.00080   114  115  116      6
   116   0.06992   0.00000   0.00000   0.00103    0.00000  90.00000   0.00080   115  116  117      6
   117   0.06992   0.00103   0.00000   0.00103    0.00000  90.00000   0.00080   116  117  118      6
   118   0.06992   0.00205   0.00000   0.00103    0.00000  90.00000   0.00080   117  118  119      6
   119   0.06992   0.00308   0.00000   0.00103    0.00000  90.00000   0.00080   118  119  120      6
   120   0.06992   0.00410   0.00000   0.00103    0.00000  90.00000   0.00080   119  120  121      6
   121   0.06992   0.00513   0.00000   0.00103    0.00000  90.00000   0.00080   120  121  122      6
   122   0.06992   0.00616   0.00000   0.00103    0.00000  90.00000   0.00080   121  122  123      6
   123   0.06992   0.00718   0.00000   0.00103    0.00000  90.00000   0.00080   122  123  124      6
   124   0.06992   0.00821   0.00000   0.00103    0.00000  90.00000   0.00080   123  124  125      6
   125   0.06992   0.00923   0.00000   0.00103    0.00000  90.00000   0.00080   124  125  126      6
   126   0.06992   0.01026   0.00000   0.00103    0.00000  90.00000   0.00080   125  126    0      6
   127   0.08289  -0.00947   0.00000   0.00095    0.00000  90.00000   0.00080     0  127  128      7
   128   0.08289  -0.00852   0.00000   0.00095    0.00000  90.00000   0.00080   127  128  129      7
   129   0.08289  -0.00758   0.00000   0.00095    0.00000  90.00000   0.00080   128  129  130      7
   130   0.08289  -0.00663   0.00000   0.00095    0.00000  90.00000   0.00080   129  130  131      7
   131   0.08289  -0.00568   0.00000   0.00095    0.00000  90.00000   0.00080   130  131  132      7
   132   0.08289  -0.00474   0.00000   0.00095    0.00000  90.00000   0.00080   131  132  133      7
   133   0.08289  -0.00379   0.00000   0.00095    0.00000  90.00000   0.00080   132  133  134      7
   134   0.08289  -0.00284   0.00000   0.00095    0.00000  90.00000   0.00080   133  134  135      7
   135   0.08289  -0.00189   0.00000   0.00095    0.00000  90.00000   0.00080   134  135  136      7
   136   0.08289  -0.00095   0.00000   0.00095    0.00000  90.00000   0.00080   135  136  137      7
   137   0.08289   0.00000   0.00000   0.00095    0.00000  90.00000   0.00080   136  137  138      7
   138   0.08289   0.00095   0.00000   0.00095    0.00000  90.00000   0.00080   137  138  139      7
   139   0.08289   0.00189   0.00000   0.00095    0.00000  90.00000   0.00080   138  139  140      7
   140   0.08289   0.00284   0.00000   0.00095    0.00000  90.00000   0.00080   139  140  141      7
   141   0.08289   0.00379   0.00000   0.00095    0.00000  90.00000   0.00080   140  141  142      7
   142   0.08289   0.00474   0.00000   0.00095    0.00000  90.00000   0.00080   141  142  143      7
   143   0.08289   0.00568   0.00000   0.00095    0.00000  90.00000   0.00080   142  143  144      7
   144   0.08289   0.00663   0.00000   0.00095    0.00000  90.00000   0.00080   143  144  145      7
   145   0.08289   0.00758   0.00000   0.00095    0.00000  90.00000   0.00080   144  145  146      7
   146   0.08289   0.00852   0.00000   0.00095    0.00000  90.00000   0.00080   145  146  147      7
   147   0.08289   0.00947   0.00000   0.00095    0.00000  90.00000   0.00080   146  147    0      7
   148   0.09699  -0.00894   0.00000   0.00089    0.00000  90.00000   0.00080     0  148  149      8
   149   0.09699  -0.00804   0.00000   0.00089    0.00000  90.00000   0.00080   148  149  150      8
   150   0.09699  -0.00715   0.00000   0.00089    0.00000  90.00000   0.00080   149  150  151      8
   151   0.09699  -0.00626   0.00000   0.00089    0.00000  90.00000   0.00080   150  151  152      8
   152   0.09699  -0.00536   0.00000   0.00089    0.00000  90.00000   0.00080   151  152  153      8
   153   0.09699  -0.00447   0.00000   0.00089    0.00000  90.00000   0.00080   152  153  154      8
   154   0.09699  -0.00358   0.00000   0.00089    0.00000  90.00000   0.00080   153  154  155      8
   155   0.09699  -0.00268   0.00000   0.00089    0.00000  90.00000   0.00080   154  155  156      8
   156   0.09699  -0.00179   0.00000   0.00089    0.00000  90.00000   0.00080   155  156  157      8
   157   0.09699  -0.00089   0.00000   0.00089    0.00000  90.00000   0.00080   156  157  158      8
   158   0.09699   0.00000   0.00000   0.00089    0.00000  90.00000   0.00080   157  158  159      8
   159   0.09699   0.00089   0.00000   0.00089    0.00000  90.00000   0.00080   158  159  160      8
   160   0.09699   0.00179   0.00000   0.00089    0.00000  90.00000   0.00080   159  160  161      8
   161   0.09699   0.00268   0.00000   0.00089    0.00000  90.00000   0.00080   160  161  162      8
   162   0.09699   0.00358   0.00000   0.00089    0.00000  90.00000   0.00080   161  162  163      8
   163   0.09699   0.00447   0.00000   0.00089    0.00000  90.00000   0.00080   162  163  164      8
   164   0.09699   0.00536   0.00000   0.00089    0.00000  90.00000   0.00080   163  164  165      8
   165   0.09699   0.00626   0.00000   0.00089    0.00000  90.00000   0.00080   164  165  166      8
   166   0.09699   0.00715   0.00000   0.00089    0.00000  90.00000   0.00080   165  166  167      8
   167   0.09699   0.00804   0.00000   0.00089    0.00000  90.00000   0.00080   166  167  168      8
   168   0.09699   0.00894   0.00000   0.00089    0.00000  90.00000   0.00080   167  168    0      8






 ***** DATA CARD NO.  1   LD   5     1     1    21  1.56000E+07  0.00000E+00  0.00000E+00  0.00000E+00  0.00000E+00  0.00000E+00
 ***** DATA CARD NO.  2   LD   5     2     1    21  1.56000E+07  0.00000E+00  0.00000E+00  0.00000E+00  0.00000E+00  0.00000E+00
 ***** DATA CARD NO.  3   LD   5     3     1    21  1.56000E+07  0.00000E+00  0.00000E+00  0.00000E+00  0.00000E+00  0.00000E+00
 ***** DATA CARD NO.  4   LD   5     4     1    21  1.56000E+07  0.00000E+00  0.00000E+00  0.00000E+00  0.00000E+00  0.00000E+00
 ***** DATA CARD NO.  5   LD   5     5     1    21  1.56000E+07  0.00000E+00  0.00000E+00  0.00000E+00  0.00000E+00  0.00000E+00
 ***** DATA CARD NO.  6   LD   5     6     1    21  1.56000E+07  0.00000E+00  0.00000E+00  0.00000E+00  0.00000E+00  0.00000E+00
 ***** DATA CARD NO.  7   LD   5     7     1    21  1.56000E+07  0.00000E+00  0.00000E+00  0.00000E+00  0.00000E+00  0.00000E+00
 ***** DATA CARD NO.  8   LD   5     8     1    21  1.56000E+07  0.00000E+00  0.00000E+00  0.00000E+00  0.00000E+00  0.00000E+00
 ***** DATA CARD NO.  9   GN  -1     0     0     0  0.00000E+00  0.00000E+00  0.00000E+00  0.00000E+00  0.00000E+00  0.00000E+00
 ***** DATA CARD NO. 10   EK   0     0     0     0  0.00000E+00  0.00000E+00  0.00000E+00  0.00000E+00  0.00000E+00  0.00000E+00
 ***** DATA CARD NO. 11   EX   0     2    11     0  1.00000E+00  0.00000E+00  0.00000E+00  0.00000E+00  0.00000E+00  0.00000E+00
 ***** DATA CARD NO. 12   FR   0     0     0     0  5.23000E+03  0.00000E+00  0.00000E+00  0.00000E+00  0.00000E+00  0.00000E+00
 ***** DATA CARD NO. 13   RP   0    37    73  1003 -1.80000E+02  0.00000E+00  5.00000E+00  5.00000E+00  0.00000E+00  0.00000E+00




                                 - - - - - - FREQUENCY - - - - - -

                                    FREQUENCY= 5.2300E+03 MHZ
                                    WAVELENGTH= 5.7323E-02 METERS




                    APPROXIMATE INTEGRATION EMPLOYED FOR SEGMENTS MORE THAN   1.000 WAVELENGTHS APART

                    THE EXTENDED THIN WIRE KERNEL WILL BE USED



                               - - - STRUCTURE IMPEDANCE LOADING - - -


       LOCATION          RESISTANCE   INDUCTANCE  CAPACITANCE       IMPEDANCE (OHMS)     CONDUCTIVITY    TYPE
    ITAG FROM THRU          OHMS        HENRYS       FARADS        REAL      IMAGINARY    MHOS/METER

       1    1   21                                                                       1.5600E+07     WIRE  

       2    1   21                                                                       1.5600E+07     WIRE  

       3    1   21                                                                       1.5600E+07     WIRE  

       4    1   21                                                                       1.5600E+07     WIRE  

       5    1   21                                                                       1.5600E+07     WIRE  

       6    1   21                                                                       1.5600E+07     WIRE  

       7    1   21                                                                       1.5600E+07     WIRE  

       8    1   21                                                                       1.5600E+07     WIRE  



                                  - - - ANTENNA ENVIRONMENT - - -

                                            FREE SPACE



                                - - - MATRIX TIMING - - -

                        FILL=    0.016 SEC.,  FACTOR=    0.016 SEC.



                                          - - - ANTENNA INPUT PARAMETERS - - -

   TAG   SEG.    VOLTAGE (VOLTS)         CURRENT (AMPS)         IMPEDANCE (OHMS)        ADMITTANCE (MHOS)      POWER
   NO.   NO.    REAL        IMAG.       REAL        IMAG.       REAL        IMAG.       REAL        IMAG.     (WATTS)
     2    32 1.00000E+00 0.00000E+00 2.00143E-02-1.73728E-05 4.99641E+01 4.33697E-02 2.00143E-02-1.73728E-05 1.00072E-02



                             - - - CURRENTS AND LOCATION - - -

                                 DISTANCES IN WAVELENGTHS


  SEG.  TAG    COORD. OF SEG. CENTER     SEG.            - - - CURRENT (AMPS) - - -
  NO.   NO.     X        Y        Z      LENGTH     REAL        IMAG.       MAG.        PHASE
     1    1   0.0000  -0.2268   0.0000  0.02268  -5.8722E-04  1.6265E-03  1.7293E-03  109.851
     2    1   0.0000  -0.2041   0.0000  0.02268  -1.1051E-03  3.0023E-03  3.1992E-03  110.208
     3    1   0.0000  -0.1814   0.0000  0.02268  -1.5534E-03  4.1465E-03  4.4280E-03  110.537
     4    1   0.0000  -0.1588   0.0000  0.02268  -1.9664E-03  5.1674E-03  5.5289E-03  110.834
     5    1   0.0000  -0.1361   0.0000  0.02268  -2.3428E-03  6.0729E-03  6.5091E-03  111.095
     6    1   0.0000  -0.1134   0.0000  0.02268  -2.6768E-03  6.8586E-03  7.3625E-03  111.320
     7    1   0.0000  -0.0907   0.0000  0.02268  -2.9616E-03  7.5164E-03  8.0788E-03  111.506
     8    1   0.0000  -0.0680   0.0000  0.02268  -3.1907E-03  8.0378E-03  8.6479E-03  111.651
     9    1   0.0000  -0.0454   0.0000  0.02268  -3.3585E-03  8.4156E-03  9.0610E-03  111.756
    10    1   0.0000  -0.0227   0.0000  0.02268  -3.4609E-03  8.6445E-03  9.3116E-03  111.819
    11    1   0.0000   0.0000   0.0000  0.02268  -3.4953E-03  8.7212E-03  9.3955E-03  111.840
    12    1   0.0000   0.0227   0.0000  0.02268  -3.4609E-03  8.6445E-03  9.3116E-03  111.819
    13    1   0.0000   0.0454   0.0000  0.02268  -3.3585E-03  8.4156E-03  9.0610E-03  111.756
    14    1   0.0000   0.0680   0.0000  0.02268  -3.1907E-03  8.0378E-03  8.6479E-03  111.651
    15    1   0.0000   0.0907   0.0000  0.02268  -2.9616E-03  7.5164E-03  8.0788E-03  111.506
    16    1   0.0000   0.1134   0.0000  0.02268  -2.6768E-03  6.8586E-03  7.3625E-03  111.320
    17    1   0.0000   0.1361   0.0000  0.02268  -2.3428E-03  6.0729E-03  6.5091E-03  111.095
    18    1   0.0000   0.1588   0.0000  0.02268  -1.9664E-03  5.1674E-03  5.5289E-03  110.834
    19    1   0.0000   0.1814   0.0000  0.02268  -1.5534E-03  4.1465E-03  4.4280E-03  110.537
    20    1   0.0000   0.2041   0.0000  0.02268  -1.1051E-03  3.0023E-03  3.1992E-03  110.208
    21    1   0.0000   0.2268   0.0000  0.02268  -5.8722E-04  1.6265E-03  1.7293E-03  109.851
    22    2   0.2074  -0.2123   0.0000  0.02123   3.7806E-03 -1.2941E-03  3.9960E-03  -18.896
    23    2   0.2074  -0.1911   0.0000  0.02123   6.9099E-03 -2.1307E-03  7.2310E-03  -17.137
    24    2   0.2074  -0.1699   0.0000  0.02123   9.5211E-03 -2.6310E-03  9.8779E-03  -15.447
    25    2   0.2074  -0.1486   0.0000  0.02123   1.1856E-02 -2.9273E-03  1.2212E-02  -13.870
    26    2   0.2074  -0.1274   0.0000  0.02123   1.3930E-02 -3.0605E-03  1.4263E-02  -12.391
    27    2   0.2074  -0.1062   0.0000  0.02123   1.5733E-02 -3.0528E-03  1.6026E-02  -10.981
    28    2   0.2074  -0.0849   0.0000  0.02123   1.7243E-02 -2.9145E-03  1.7488E-02   -9.593
    29    2   0.2074  -0.0637   0.0000  0.02123   1.8442E-02 -2.6442E-03  1.8630E-02   -8.159
    30    2   0.2074  -0.0425   0.0000  0.02123   1.9311E-02 -2.2279E-03  1.9439E-02   -6.581
    31    2   0.2074  -0.0212   0.0000  0.02123   1.9838E-02 -1.5101E-03  1.9895E-02   -4.353
    32    2   0.2074   0.0000   0.0000  0.02123   2.0014E-02 -1.7373E-05  2.0014E-02   -0.050
    33    2   0.2074   0.0212   0.0000  0.02123   1.9838E-02 -1.5101E-03  1.9895E-02   -4.353
    34    2   0.2074   0.0425   0.0000  0.02123   1.9311E-02 -2.2279E-03  1.9439E-02   -6.581
    35    2   0.2074   0.0637   0.0000  0.02123   1.8442E-02 -2.6442E-03  1.8630E-02   -8.159
    36    2   0.2074   0.0849   0.0000  0.02123   1.7243E-02 -2.9145E-03  1.7488E-02   -9.593
    37    2   0.2074   0.1062   0.0000  0.02123   1.5733E-02 -3.0528E-03  1.6026E-02  -10.981
    38    2   0.2074   0.1274   0.0000  0.02123   1.3930E-02 -3.0605E-03  1.4263E-02  -12.391
    39    2   0.2074   0.1486   0.0000  0.02123   1.1856E-02 -2.9273E-03  1.2212E-02  -13.870
    40    2   0.2074   0.1699   0.0000  0.02123   9.5211E-03 -2.6310E-03  9.8779E-03  -15.447
    41    2   0.2074   0.1911   0.0000  0.02123   6.9099E-03 -2.1307E-03  7.2310E-03  -17.137
    42    2   0.2074   0.2123   0.0000  0.02123   3.7806E-03 -1.2941E-03  3.9960E-03  -18.896
    43    3   0.3098  -0.1939   0.0000  0.01939  -1.8871E-03 -4.2658E-03  4.6646E-03 -113.864
    44    3   0.3098  -0.1745   0.0000  0.01939  -3.4108E-03 -7.5475E-03  8.2824E-03 -114.319
    45    3   0.3098  -0.1551   0.0000  0.01939  -4.6879E-03 -1.0206E-02  1.1231E-02 -114.670
    46    3   0.3098  -0.1357   0.0000  0.01939  -5.8256E-03 -1.2533E-02  1.3821E-02 -114.930
    47    3   0.3098  -0.1163   0.0000  0.01939  -6.8323E-03 -1.4575E-02  1.6097E-02 -115.116
    48    3   0.3098  -0.0969   0.0000  0.01939  -7.7028E-03 -1.6336E-02  1.8061E-02 -115.245
    49    3   0.3098  -0.0775   0.0000  0.01939  -8.4292E-03 -1.7809E-02  1.9703E-02 -115.329
    50    3   0.3098  -0.0582   0.0000  0.01939  -9.0034E-03 -1.8979E-02  2.1007E-02 -115.379
    51    3   0.3098  -0.0388   0.0000  0.01939  -9.4186E-03 -1.9831E-02  2.1954E-02 -115.405
    52    3   0.3098  -0.0194   0.0000  0.01939  -9.6698E-03 -2.0350E-02  2.2531E-02 -115.416
    53    3   0.3098   0.0000   0.0000  0.01939  -9.7539E-03 -2.0525E-02  2.2724E-02 -115.418
    54    3   0.3098   0.0194   0.0000  0.01939  -9.6698E-03 -2.0350E-02  2.2531E-02 -115.416
    55    3   0.3098   0.0388   0.0000  0.01939  -9.4186E-03 -1.9831E-02  2.1954E-02 -115.405
    56    3   0.3098   0.0582   0.0000  0.01939  -9.0034E-03 -1.8979E-02  2.1007E-02 -115.379
    57    3   0.3098   0.0775   0.0000  0.01939  -8.4292E-03 -1.7809E-02  1.9703E-02 -115.329
    58    3   0.3098   0.0969   0.0000  0.01939  -7.7028E-03 -1.6336E-02  1.8061E-02 -115.245
    59    3   0.3098   0.1163   0.0000  0.01939  -6.8323E-03 -1.4575E-02  1.6097E-02 -115.116
    60    3   0.3098   0.1357   0.0000  0.01939  -5.8256E-03 -1.2533E-02  1.3821E-02 -114.930
    61    3   0.3098   0.1551   0.0000  0.01939  -4.6879E-03 -1.0206E-02  1.1231E-02 -114.670
    62    3   0.3098   0.1745   0.0000  0.01939  -3.4108E-03 -7.5475E-03  8.2824E-03 -114.319
    63    3   0.3098   0.1939   0.0000  0.01939  -1.8871E-03 -4.2658E-03  4.6646E-03 -113.864
    64    4   0.5448  -0.1866   0.0000  0.01866  -2.9230E-03  4.5811E-03  5.4342E-03  122.539
    65    4   0.5448  -0.1679   0.0000  0.01866  -5.1058E-03  8.0181E-03  9.5057E-03  122.489
    66    4   0.5448  -0.1492   0.0000  0.01866  -6.8529E-03  1.0781E-02  1.2774E-02  122.442
    67    4   0.5448  -0.1306   0.0000  0.01866  -8.3608E-03  1.3174E-02  1.5603E-02  122.401
    68    4   0.5448  -0.1119   0.0000  0.01866  -9.6655E-03  1.5251E-02  1.8056E-02  122.364
    69    4   0.5448  -0.0933   0.0000  0.01866  -1.0776E-02  1.7024E-02  2.0147E-02  122.333
    70    4   0.5448  -0.0746   0.0000  0.01866  -1.1691E-02  1.8489E-02  2.1875E-02  122.307
    71    4   0.5448  -0.0560   0.0000  0.01866  -1.2409E-02  1.9639E-02  2.3231E-02  122.286
    72    4   0.5448  -0.0373   0.0000  0.01866  -1.2925E-02  2.0467E-02  2.4206E-02  122.272
    73    4   0.5448  -0.0187   0.0000  0.01866  -1.3236E-02  2.0967E-02  2.4795E-02  122.263
    74    4   0.5448   0.0000   0.0000  0.01866  -1.3340E-02  2.1134E-02  2.4992E-02  122.260
    75    4   0.5448   0.0187   0.0000  0.01866  -1.3236E-02  2.0967E-02  2.4795E-02  122.263
    76    4   0.5448   0.0373   0.0000  0.01866  -1.2925E-02  2.0467E-02  2.4206E-02  122.272
    77    4   0.5448   0.0560   0.0000  0.01866  -1.2409E-02  1.9639E-02  2.3231E-02  122.286
    78    4   0.5448   0.0746   0.0000  0.01866  -1.1691E-02  1.8489E-02  2.1875E-02  122.307
    79    4   0.5448   0.0933   0.0000  0.01866  -1.0776E-02  1.7024E-02  2.0147E-02  122.333
    80    4   0.5448   0.1119   0.0000  0.01866  -9.6655E-03  1.5251E-02  1.8056E-02  122.364
    81    4   0.5448   0.1306   0.0000  0.01866  -8.3608E-03  1.3174E-02  1.5603E-02  122.401
    82    4   0.5448   0.1492   0.0000  0.01866  -6.8529E-03  1.0781E-02  1.2774E-02  122.442
    83    4   0.5448   0.1679   0.0000  0.01866  -5.1058E-03  8.0181E-03  9.5057E-03  122.489
    84    4   0.5448   0.1866   0.0000  0.01866  -2.9230E-03  4.5811E-03  5.4342E-03  122.539
    85    5   0.8992  -0.1798   0.0000  0.01798   3.6681E-03 -1.6422E-03  4.0190E-03  -24.117
    86    5   0.8992  -0.1618   0.0000  0.01798   6.3453E-03 -2.8390E-03  6.9515E-03  -24.105
    87    5   0.8992  -0.1438   0.0000  0.01798   8.4840E-03 -3.7940E-03  9.2937E-03  -24.094
    88    5   0.8992  -0.1258   0.0000  0.01798   1.0324E-02 -4.6151E-03  1.1309E-02  -24.085
    89    5   0.8992  -0.1079   0.0000  0.01798   1.1913E-02 -5.3235E-03  1.3049E-02  -24.078
    90    5   0.8992  -0.0899   0.0000  0.01798   1.3263E-02 -5.9251E-03  1.4527E-02  -24.071
    91    5   0.8992  -0.0719   0.0000  0.01798   1.4375E-02 -6.4203E-03  1.5744E-02  -24.066
    92    5   0.8992  -0.0539   0.0000  0.01798   1.5246E-02 -6.8080E-03  1.6697E-02  -24.063
    93    5   0.8992  -0.0360   0.0000  0.01798   1.5872E-02 -7.0866E-03  1.7382E-02  -24.060
    94    5   0.8992  -0.0180   0.0000  0.01798   1.6249E-02 -7.2544E-03  1.7795E-02  -24.058
    95    5   0.8992   0.0000   0.0000  0.01798   1.6375E-02 -7.3104E-03  1.7933E-02  -24.058
    96    5   0.8992   0.0180   0.0000  0.01798   1.6249E-02 -7.2544E-03  1.7795E-02  -24.058
    97    5   0.8992   0.0360   0.0000  0.01798   1.5872E-02 -7.0866E-03  1.7382E-02  -24.060
    98    5   0.8992   0.0539   0.0000  0.01798   1.5246E-02 -6.8080E-03  1.6697E-02  -24.063
    99    5   0.8992   0.0719   0.0000  0.01798   1.4375E-02 -6.4203E-03  1.5744E-02  -24.066
   100    5   0.8992   0.0899   0.0000  0.01798   1.3263E-02 -5.9251E-03  1.4527E-02  -24.071
   101    5   0.8992   0.1079   0.0000  0.01798   1.1913E-02 -5.3235E-03  1.3049E-02  -24.078
   102    5   0.8992   0.1258   0.0000  0.01798   1.0324E-02 -4.6151E-03  1.1309E-02  -24.085
   103    5   0.8992   0.1438   0.0000  0.01798   8.4840E-03 -3.7940E-03  9.2937E-03  -24.094
   104    5   0.8992   0.1618   0.0000  0.01798   6.3453E-03 -2.8390E-03  6.9515E-03  -24.105
   105    5   0.8992   0.1798   0.0000  0.01798   3.6681E-03 -1.6422E-03  4.0190E-03  -24.117
   106    6   1.2198  -0.1790   0.0000  0.01790  -2.6423E-03 -9.7843E-04  2.8177E-03 -159.681
   107    6   1.2198  -0.1611   0.0000  0.01790  -4.5597E-03 -1.6935E-03  4.8640E-03 -159.625
   108    6   1.2198  -0.1432   0.0000  0.01790  -6.0871E-03 -2.2670E-03  6.4956E-03 -159.574
   109    6   1.2198  -0.1253   0.0000  0.01790  -7.3982E-03 -2.7621E-03  7.8970E-03 -159.527
   110    6   1.2198  -0.1074   0.0000  0.01790  -8.5279E-03 -3.1908E-03  9.1052E-03 -159.486
   111    6   1.2198  -0.0895   0.0000  0.01790  -9.4860E-03 -3.5559E-03  1.0131E-02 -159.451
   112    6   1.2198  -0.0716   0.0000  0.01790  -1.0274E-02 -3.8574E-03  1.0974E-02 -159.421
   113    6   1.2198  -0.0537   0.0000  0.01790  -1.0890E-02 -4.0939E-03  1.1634E-02 -159.398
   114    6   1.2198  -0.0358   0.0000  0.01790  -1.1333E-02 -4.2641E-03  1.2109E-02 -159.381
   115    6   1.2198  -0.0179   0.0000  0.01790  -1.1599E-02 -4.3667E-03  1.2394E-02 -159.371
   116    6   1.2198   0.0000   0.0000  0.01790  -1.1688E-02 -4.4010E-03  1.2490E-02 -159.367
   117    6   1.2198   0.0179   0.0000  0.01790  -1.1599E-02 -4.3667E-03  1.2394E-02 -159.371
   118    6   1.2198   0.0358   0.0000  0.01790  -1.1333E-02 -4.2641E-03  1.2109E-02 -159.381
   119    6   1.2198   0.0537   0.0000  0.01790  -1.0890E-02 -4.0939E-03  1.1634E-02 -159.398
   120    6   1.2198   0.0716   0.0000  0.01790  -1.0274E-02 -3.8574E-03  1.0974E-02 -159.421
   121    6   1.2198   0.0895   0.0000  0.01790  -9.4860E-03 -3.5559E-03  1.0131E-02 -159.451
   122    6   1.2198   0.1074   0.0000  0.01790  -8.5279E-03 -3.1908E-03  9.1052E-03 -159.486
   123    6   1.2198   0.1253   0.0000  0.01790  -7.3982E-03 -2.7621E-03  7.8970E-03 -159.527
   124    6   1.2198   0.1432   0.0000  0.01790  -6.0871E-03 -2.2670E-03  6.4956E-03 -159.574
   125    6   1.2198   0.1611   0.0000  0.01790  -4.5597E-03 -1.6935E-03  4.8640E-03 -159.625
   126    6   1.2198   0.1790   0.0000  0.01790  -2.6423E-03 -9.7843E-04  2.8177E-03 -159.681
   127    7   1.4460  -0.1652   0.0000  0.01652  -1.0356E-03  1.7120E-03  2.0009E-03  121.170
   128    7   1.4460  -0.1487   0.0000  0.01652  -1.7406E-03  2.8855E-03  3.3698E-03  121.099
   129    7   1.4460  -0.1322   0.0000  0.01652  -2.2970E-03  3.8175E-03  4.4552E-03  121.036
   130    7   1.4460  -0.1156   0.0000  0.01652  -2.7683E-03  4.6107E-03  5.3779E-03  120.981
   131    7   1.4460  -0.0991   0.0000  0.01652  -3.1702E-03  5.2901E-03  6.1673E-03  120.933
   132    7   1.4460  -0.0826   0.0000  0.01652  -3.5083E-03  5.8637E-03  6.8331E-03  120.893
   133    7   1.4460  -0.0661   0.0000  0.01652  -3.7846E-03  6.3337E-03  7.3782E-03  120.860
   134    7   1.4460  -0.0496   0.0000  0.01652  -3.9996E-03  6.7003E-03  7.8032E-03  120.834
   135    7   1.4460  -0.0330   0.0000  0.01652  -4.1533E-03  6.9629E-03  8.1075E-03  120.816
   136    7   1.4460  -0.0165   0.0000  0.01652  -4.2457E-03  7.1208E-03  8.2905E-03  120.805
   137    7   1.4460   0.0000   0.0000  0.01652  -4.2765E-03  7.1735E-03  8.3515E-03  120.801
   138    7   1.4460   0.0165   0.0000  0.01652  -4.2457E-03  7.1208E-03  8.2905E-03  120.805
   139    7   1.4460   0.0330   0.0000  0.01652  -4.1533E-03  6.9629E-03  8.1075E-03  120.816
   140    7   1.4460   0.0496   0.0000  0.01652  -3.9996E-03  6.7003E-03  7.8032E-03  120.834
   141    7   1.4460   0.0661   0.0000  0.01652  -3.7846E-03  6.3337E-03  7.3782E-03  120.860
   142    7   1.4460   0.0826   0.0000  0.01652  -3.5083E-03  5.8637E-03  6.8331E-03  120.893
   143    7   1.4460   0.0991   0.0000  0.01652  -3.1702E-03  5.2901E-03  6.1673E-03  120.933
   144    7   1.4460   0.1156   0.0000  0.01652  -2.7683E-03  4.6107E-03  5.3779E-03  120.981
   145    7   1.4460   0.1322   0.0000  0.01652  -2.2970E-03  3.8175E-03  4.4552E-03  121.036
   146    7   1.4460   0.1487   0.0000  0.01652  -1.7406E-03  2.8855E-03  3.3698E-03  121.099
   147    7   1.4460   0.1652   0.0000  0.01652  -1.0356E-03  1.7120E-03  2.0009E-03  121.170
   148    8   1.6920  -0.1559   0.0000  0.01559   1.6695E-03  7.0720E-04  1.8131E-03   22.958
   149    8   1.6920  -0.1403   0.0000  0.01559   2.7644E-03  1.1662E-03  3.0003E-03   22.873
   150    8   1.6920  -0.1247   0.0000  0.01559   3.6359E-03  1.5283E-03  3.9440E-03   22.798
   151    8   1.6920  -0.1091   0.0000  0.01559   4.3739E-03  1.8325E-03  4.7423E-03   22.732
   152    8   1.6920  -0.0936   0.0000  0.01559   5.0041E-03  2.0906E-03  5.4232E-03   22.674
   153    8   1.6920  -0.0780   0.0000  0.01559   5.5348E-03  2.3066E-03  5.9962E-03   22.624
   154    8   1.6920  -0.0624   0.0000  0.01559   5.9689E-03  2.4825E-03  6.4645E-03   22.583
   155    8   1.6920  -0.0468   0.0000  0.01559   6.3070E-03  2.6189E-03  6.8291E-03   22.550
   156    8   1.6920  -0.0312   0.0000  0.01559   6.5489E-03  2.7162E-03  7.0899E-03   22.527
   157    8   1.6920  -0.0156   0.0000  0.01559   6.6944E-03  2.7746E-03  7.2466E-03   22.513
   158    8   1.6920   0.0000   0.0000  0.01559   6.7429E-03  2.7941E-03  7.2989E-03   22.508
   159    8   1.6920   0.0156   0.0000  0.01559   6.6944E-03  2.7746E-03  7.2466E-03   22.513
   160    8   1.6920   0.0312   0.0000  0.01559   6.5489E-03  2.7162E-03  7.0899E-03   22.527
   161    8   1.6920   0.0468   0.0000  0.01559   6.3070E-03  2.6189E-03  6.8291E-03   22.550
   162    8   1.6920   0.0624   0.0000  0.01559   5.9689E-03  2.4825E-03  6.4645E-03   22.583
   163    8   1.6920   0.0780   0.0000  0.01559   5.5348E-03  2.3066E-03  5.9962E-03   22.624
   164    8   1.6920   0.0936   0.0000  0.01559   5.0041E-03  2.0906E-03  5.4232E-03   22.674
   165    8   1.6920   0.1091   0.0000  0.01559   4.3739E-03  1.8325E-03  4.7423E-03   22.732
   166    8   1.6920   0.1247   0.0000  0.01559   3.6359E-03  1.5283E-03  3.9440E-03   22.798
   167    8   1.6920   0.1403   0.0000  0.01559   2.7644E-03  1.1662E-03  3.0003E-03   22.873
   168    8   1.6920   0.1559   0.0000  0.01559   1.6695E-03  7.0720E-04  1.8131E-03   22.958



                                        - - - POWER BUDGET - - -

                                           INPUT POWER   = 1.0007E-02 WATTS
                                           RADIATED POWER= 9.9002E-03 WATTS
                                           STRUCTURE LOSS= 1.0694E-04 WATTS
                                           NETWORK LOSS  = 0.0000E+00 WATTS
                                           EFFICIENCY    =  98.93 PERCENT



                                                - - - RADIATION PATTERNS - - -

  - - ANGLES - -           - POWER GAINS -       - - - POLARIZATION - - -    - - - E(THETA) - - -    - - - E(PHI) - - -
  THETA     PHI        VERT.   HOR.    TOTAL      AXIAL     TILT   SENSE     MAGNITUDE    PHASE      MAGNITUDE    PHASE 
 DEGREES  DEGREES       DB      DB      DB        RATIO     DEG.              VOLTS/M    DEGREES      VOLTS/M    DEGREES
 -180.00     0.00    -999.99  -10.45  -10.45    0.00000    90.00  LINEAR    0.00000E+00     0.00    2.32634E-01   -17.52
 -175.00     0.00    -999.99   -9.03   -9.03    0.00000    90.00  LINEAR    0.00000E+00     0.00    2.73747E-01   -51.92
 -170.00     0.00    -999.99  -10.15  -10.15    0.00000    90.00  LINEAR    0.00000E+00     0.00    2.40891E-01   -82.57
 -165.00     0.00    -999.99  -13.33  -13.33    0.00000   -90.00  LINEAR    0.00000E+00     0.00    1.66895E-01  -111.77
 -160.00     0.00    -999.99  -18.79  -18.79    0.00000   -90.00  LINEAR    0.00000E+00     0.00    8.90323E-02  -137.23
 -155.00     0.00    -999.99  -26.06  -26.06    0.00000   -90.00  LINEAR    0.00000E+00     0.00    3.85596E-02  -137.66
 -150.00     0.00    -999.99  -23.94  -23.94    0.00000   -90.00  LINEAR    0.00000E+00     0.00    4.92249E-02  -114.94
 -145.00     0.00    -999.99  -18.61  -18.61    0.00000   -90.00  LINEAR    0.00000E+00     0.00    9.09351E-02  -135.38
 -140.00     0.00    -999.99  -14.92  -14.92    0.00000   -90.00  LINEAR    0.00000E+00     0.00    1.39030E-01  -160.98
 -135.00     0.00    -999.99  -12.69  -12.69    0.00000   -90.00  LINEAR    0.00000E+00     0.00    1.79774E-01   177.65
 -130.00     0.00    -999.99  -11.71  -11.71    0.00000   -90.00  LINEAR    0.00000E+00     0.00    2.01156E-01   161.74
 -125.00     0.00    -999.99  -11.79  -11.79    0.00000   -90.00  LINEAR    0.00000E+00     0.00    1.99242E-01   152.26
 -120.00     0.00    -999.99  -12.61  -12.61    0.00000   -90.00  LINEAR    0.00000E+00     0.00    1.81448E-01   151.30
 -115.00     0.00    -999.99  -13.32  -13.32    0.00000   -90.00  LINEAR    0.00000E+00     0.00    1.67218E-01   160.81
 -110.00     0.00    -999.99  -12.77  -12.77    0.00000   -90.00  LINEAR    0.00000E+00     0.00    1.78050E-01   175.97
 -105.00     0.00    -999.99  -11.20  -11.20    0.00000   -90.00  LINEAR    0.00000E+00     0.00    2.13279E-01  -172.84
 -100.00     0.00    -999.99   -9.68   -9.68    0.00000   -90.00  LINEAR    0.00000E+00     0.00    2.54009E-01  -167.46
  -95.00     0.00    -999.99   -8.71   -8.71    0.00000   -90.00  LINEAR    0.00000E+00     0.00    2.84172E-01  -165.40
  -90.00     0.00    -999.99   -8.38   -8.38    0.00000   -90.00  LINEAR    0.00000E+00     0.00    2.95114E-01  -164.90
  -85.00     0.00    -999.99   -8.71   -8.71    0.00000   -90.00  LINEAR    0.00000E+00     0.00    2.84172E-01  -165.40
  -80.00     0.00    -999.99   -9.68   -9.68    0.00000   -90.00  LINEAR    0.00000E+00     0.00    2.54009E-01  -167.46
  -75.00     0.00    -999.99  -11.20  -11.20    0.00000   -90.00  LINEAR    0.00000E+00     0.00    2.13279E-01  -172.84
  -70.00     0.00    -999.99  -12.77  -12.77    0.00000   -90.00  LINEAR    0.00000E+00     0.00    1.78050E-01   175.97
  -65.00     0.00    -999.99  -13.32  -13.32    0.00000   -90.00  LINEAR    0.00000E+00     0.00    1.67218E-01   160.81
  -60.00     0.00    -999.99  -12.61  -12.61    0.00000   -90.00  LINEAR    0.00000E+00     0.00    1.81448E-01   151.30
  -55.00     0.00    -999.99  -11.79  -11.79    0.00000   -90.00  LINEAR    0.00000E+00     0.00    1.99242E-01   152.26
  -50.00     0.00    -999.99  -11.71  -11.71    0.00000   -90.00  LINEAR    0.00000E+00     0.00    2.01156E-01   161.74
  -45.00     0.00    -999.99  -12.69  -12.69    0.00000   -90.00  LINEAR    0.00000E+00     0.00    1.79774E-01   177.65
  -40.00     0.00    -999.99  -14.92  -14.92    0.00000   -90.00  LINEAR    0.00000E+00     0.00    1.39030E-01  -160.98
  -35.00     0.00    -999.99  -18.61  -18.61    0.00000   -90.00  LINEAR    0.00000E+00     0.00    9.09351E-02  -135.38
  -30.00     0.00    -999.99  -23.94  -23.94    0.00000   -90.00  LINEAR    0.00000E+00     0.00    4.92249E-02  -114.94
  -25.00     0.00    -999.99  -26.06  -26.06    0.00000   -90.00  LINEAR    0.00000E+00     0.00    3.85596E-02  -137.66
  -20.00     0.00    -999.99  -18.79  -18.79    0.00000   -90.00  LINEAR    0.00000E+00     0.00    8.90323E-02  -137.23
  -15.00     0.00    -999.99  -13.33  -13.33    0.00000   -90.00  LINEAR    0.00000E+00     0.00    1.66895E-01  -111.77
  -10.00     0.00    -999.99  -10.15  -10.15    0.00000    90.00  LINEAR    0.00000E+00     0.00    2.40891E-01   -82.57
   -5.00     0.00    -999.99   -9.03   -9.03    0.00000    90.00  LINEAR    0.00000E+00     0.00    2.73747E-01   -51.92
    0.00     0.00    -999.99  -10.45  -10.45    0.00000    90.00  LINEAR    0.00000E+00     0.00    2.32634E-01   -17.52
 -180.00     5.00     -31.64  -10.48  -10.45    0.00000   -85.00  LINEAR    2.02754E-02   162.48    2.31749E-01   -17.52
 -175.00     5.00     -30.26   -9.07   -9.03    0.00000   -85.02  LINEAR    2.37675E-02   128.20    2.72702E-01   -51.80
 -170.00     5.00     -31.46  -10.16  -10.13    0.00000   -85.08  LINEAR    2.07145E-02    97.66    2.40420E-01   -82.34
 -165.00     5.00     -34.78  -13.32  -13.29    0.00000   -85.17  LINEAR    1.41287E-02    68.56    1.67189E-01  -111.44
 -160.00     5.00     -40.42  -18.72  -18.69    0.00000   -85.30  LINEAR    7.37970E-03    43.09    8.97638E-02  -136.91
 -155.00     5.00     -48.00  -25.99  -25.96    0.00000   -85.47  LINEAR    3.08212E-03    41.74    3.88707E-02  -138.26
 -150.00     5.00     -46.54  -24.13  -24.10    0.00000   -85.67  LINEAR    3.64843E-03    65.26    4.81530E-02  -114.74
 -145.00     5.00     -41.68  -18.78  -18.76    0.00000   -85.90  LINEAR    6.38499E-03    45.46    8.90931E-02  -134.54
 -140.00     5.00     -38.54  -15.07  -15.05    0.00000   -86.17  LINEAR    9.15954E-03    19.92    1.36668E-01  -160.08
 -135.00     5.00     -36.97  -12.80  -12.78    0.00000   -86.46  LINEAR    1.09790E-02    -1.50    1.77470E-01   178.50
 -130.00     5.00     -36.78  -11.78  -11.76    0.00000   -86.78  LINEAR    1.12256E-02   -17.56    1.99613E-01   162.44
 -125.00     5.00     -37.80  -11.81  -11.80    0.00000   -87.13  LINEAR    9.98076E-03   -27.36    1.98894E-01   152.64
 -120.00     5.00     -39.77  -12.58  -12.58    0.00000   -87.50  LINEAR    7.95832E-03   -28.96    1.81928E-01   151.04
 -115.00     5.00     -41.98  -13.34  -13.34    0.00000   -87.88  LINEAR    6.16451E-03   -20.42    1.66724E-01   159.58
 -110.00     5.00     -43.44  -12.96  -12.96    0.00000   -88.29  LINEAR    5.21236E-03    -5.68    1.74193E-01   174.32
 -105.00     5.00     -44.42  -11.52  -11.52    0.00000   -88.70  LINEAR    4.65671E-03     5.90    2.05651E-01  -174.10
 -100.00     5.00     -46.41  -10.05  -10.05    0.00000   -89.13  LINEAR    3.70152E-03    11.75    2.43646E-01  -168.25
  -95.00     5.00     -51.44   -9.08   -9.08    0.00000   -89.56  LINEAR    2.07580E-03    14.08    2.72232E-01  -165.92
  -90.00     5.00    -999.99   -8.76   -8.76    0.00000   -90.00  LINEAR    1.26205E-13    14.67    2.82660E-01  -165.33
  -85.00     5.00     -51.44   -9.08   -9.08    0.00000    89.56  LINEAR    2.07580E-03  -165.92    2.72232E-01  -165.92
  -80.00     5.00     -46.41  -10.05  -10.05    0.00000    89.13  LINEAR    3.70152E-03  -168.25    2.43646E-01  -168.25
  -75.00     5.00     -44.42  -11.52  -11.52    0.00000    88.70  LINEAR    4.65671E-03  -174.10    2.05651E-01  -174.10
  -70.00     5.00     -43.44  -12.96  -12.96    0.00000    88.29  LINEAR    5.21236E-03   174.32    1.74193E-01   174.32
  -65.00     5.00     -41.98  -13.34  -13.34    0.00000    87.88  LINEAR    6.16451E-03   159.58    1.66724E-01   159.58
  -60.00     5.00     -39.77  -12.58  -12.58    0.00000    87.50  LINEAR    7.95832E-03   151.04    1.81928E-01   151.04
  -55.00     5.00     -37.80  -11.81  -11.80    0.00000    87.13  LINEAR    9.98076E-03   152.64    1.98894E-01   152.64
  -50.00     5.00     -36.78  -11.78  -11.76    0.00000    86.78  LINEAR    1.12256E-02   162.44    1.99613E-01   162.44
  -45.00     5.00     -36.97  -12.80  -12.78    0.00000    86.46  LINEAR    1.09790E-02   178.50    1.77470E-01   178.50
  -40.00     5.00     -38.54  -15.07  -15.05    0.00000    86.17  LINEAR    9.15954E-03  -160.08    1.36668E-01  -160.08
  -35.00     5.00     -41.68  -18.78  -18.76    0.00000    85.90  LINEAR    6.38499E-03  -134.54    8.90931E-02  -134.54
  -30.00     5.00     -46.54  -24.13  -24.10    0.00000    85.67  LINEAR    3.64843E-03  -114.74    4.81530E-02  -114.74
  -25.00     5.00     -48.00  -25.99  -25.96    0.00000    85.47  LINEAR    3.08212E-03  -138.26    3.88707E-02  -138.26
  -20.00     5.00     -40.42  -18.72  -18.69    0.00000    85.30  LINEAR    7.37970E-03  -136.91    8.97638E-02  -136.91
  -15.00     5.00     -34.78  -13.32  -13.29    0.00000    85.17  LINEAR    1.41287E-02  -111.44    1.67189E-01  -111.44
  -10.00     5.00     -31.46  -10.16  -10.13    0.00000    85.08  LINEAR    2.07145E-02   -82.34    2.40420E-01   -82.34
   -5.00     5.00     -30.26   -9.07   -9.03    0.00000    85.02  LINEAR    2.37675E-02   -51.80    2.72702E-01   -51.80
    0.00     5.00     -31.64  -10.48  -10.45    0.00000    85.00  LINEAR    2.02754E-02   -17.52    2.31749E-01   -17.52
 -180.00    10.00     -25.65  -10.58  -10.45    0.00000   -80.00  LINEAR    4.03964E-02   162.48    2.29100E-01   -17.52
 -175.00    10.00     -24.28   -9.17   -9.04    0.00000   -80.04  LINEAR    4.73511E-02   128.56    2.69567E-01   -51.44
 -170.00    10.00     -25.42  -10.21  -10.09    0.00000   -80.15  LINEAR    4.14977E-02    98.35    2.38976E-01   -81.65
 -165.00    10.00     -28.65  -13.27  -13.15    0.00000   -80.33  LINEAR    2.86173E-02    69.55    1.68022E-01  -110.45
 -160.00    10.00     -34.13  -18.51  -18.39    0.00000   -80.59  LINEAR    1.52334E-02    44.06    9.19376E-02  -135.94
 -155.00    10.00     -41.68  -25.75  -25.64    0.00000   -80.92  LINEAR    6.38493E-03    40.09    3.99541E-02  -139.91
 -150.00    10.00     -41.02  -24.70  -24.60    0.00000   -81.32  LINEAR    6.88488E-03    65.63    4.50866E-02  -114.37
 -145.00    10.00     -36.13  -19.33  -19.24    0.00000   -81.78  LINEAR    1.20916E-02    47.94    8.37146E-02  -132.06
 -140.00    10.00     -32.91  -15.52  -15.45    0.00000   -82.31  LINEAR    1.75164E-02    22.65    1.29680E-01  -157.35
 -135.00    10.00     -31.23  -13.15  -13.08    0.00000   -82.89  LINEAR    2.12575E-02     1.07    1.70494E-01  -178.93
 -130.00    10.00     -30.91  -11.99  -11.94    0.00000   -83.53  LINEAR    2.20665E-02   -15.39    1.94692E-01   164.61
 -125.00    10.00     -31.78  -11.87  -11.83    0.00000   -84.22  LINEAR    1.99657E-02   -26.03    1.97412E-01   153.97
 -120.00    10.00     -33.62  -12.52  -12.49    0.00000   -84.96  LINEAR    1.61530E-02   -29.37    1.83217E-01   150.63
 -115.00    10.00     -35.92  -13.36  -13.34    0.00000   -85.74  LINEAR    1.23964E-02   -23.60    1.66353E-01   156.40
 -110.00    10.00     -37.81  -13.41  -13.40    0.00000   -86.55  LINEAR    9.97230E-03   -10.65    1.65358E-01   169.35
 -105.00    10.00     -39.20  -12.39  -12.38    0.00000   -87.39  LINEAR    8.49211E-03     1.63    1.86080E-01  -178.37
 -100.00    10.00     -41.38  -11.10  -11.09    0.00000   -88.25  LINEAR    6.60984E-03     8.80    2.15875E-01  -171.20
  -95.00    10.00     -46.46  -10.19  -10.19    0.00000   -89.12  LINEAR    3.68337E-03    11.98    2.39680E-01  -168.02
  -90.00    10.00    -999.99   -9.87   -9.87    0.00000   -90.00  LINEAR    2.23662E-13    12.85    2.48549E-01  -167.15
  -85.00    10.00     -46.46  -10.19  -10.19    0.00000    89.12  LINEAR    3.68337E-03  -168.02    2.39680E-01  -168.02
  -80.00    10.00     -41.38  -11.10  -11.09    0.00000    88.25  LINEAR    6.60984E-03  -171.20    2.15875E-01  -171.20
  -75.00    10.00     -39.20  -12.39  -12.38    0.00000    87.39  LINEAR    8.49211E-03  -178.37    1.86080E-01  -178.37
  -70.00    10.00     -37.81  -13.41  -13.40    0.00000    86.55  LINEAR    9.97230E-03   169.35    1.65358E-01   169.35
  -65.00    10.00     -35.92  -13.36  -13.34    0.00000    85.74  LINEAR    1.23964E-02   156.40    1.66353E-01   156.40
  -60.00    10.00     -33.62  -12.52  -12.49    0.00000    84.96  LINEAR    1.61530E-02   150.63    1.83217E-01   150.63
  -55.00    10.00     -31.78  -11.87  -11.83    0.00000    84.22  LINEAR    1.99657E-02   153.97    1.97412E-01   153.97
  -50.00    10.00     -30.91  -11.99  -11.94    0.00000    83.53  LINEAR    2.20665E-02   164.61    1.94692E-01   164.61
  -45.00    10.00     -31.23  -13.15  -13.08    0.00000    82.89  LINEAR    2.12575E-02  -178.93    1.70494E-01  -178.93
  -40.00    10.00     -32.91  -15.52  -15.45    0.00000    82.31  LINEAR    1.75164E-02  -157.35    1.29680E-01  -157.35
  -35.00    10.00     -36.13  -19.33  -19.24    0.00000    81.78  LINEAR    1.20916E-02  -132.06    8.37146E-02  -132.06
  -30.00    10.00     -41.02  -24.70  -24.60    0.00000    81.32  LINEAR    6.88488E-03  -114.37    4.50866E-02  -114.37
  -25.00    10.00     -41.68  -25.75  -25.64    0.00000    80.92  LINEAR    6.38493E-03  -139.91    3.99541E-02  -139.91
  -20.00    10.00     -34.13  -18.51  -18.39    0.00000    80.59  LINEAR    1.52334E-02  -135.94    9.19376E-02  -135.94
  -15.00    10.00     -28.65  -13.27  -13.15    0.00000    80.33  LINEAR    2.86173E-02  -110.45    1.68022E-01  -110.45
  -10.00    10.00     -25.42  -10.21  -10.09    0.00000    80.15  LINEAR    4.14977E-02   -81.65    2.38976E-01   -81.65
   -5.00    10.00     -24.28   -9.17   -9.04    0.00000    80.04  LINEAR    4.73511E-02   -51.44    2.69567E-01   -51.44
    0.00    10.00     -25.65  -10.58  -10.45    0.00000    80.00  LINEAR    4.03964E-02   -17.52    2.29100E-01   -17.52
 -180.00    15.00     -22.19  -10.75  -10.45    0.00000   -75.00  LINEAR    6.02101E-02   162.48    2.24707E-01   -17.52
 -175.00    15.00     -20.81   -9.34   -9.04    0.00000   -75.05  LINEAR    7.05629E-02   129.17    2.64350E-01   -50.83
 -170.00    15.00     -21.88  -10.31  -10.01    0.00000   -75.22  LINEAR    6.23982E-02    99.49    2.36466E-01   -80.51
 -165.00    15.00     -24.95  -13.21  -12.93    0.00000   -75.49  LINEAR    4.38038E-02    71.19    1.69245E-01  -108.81
 -160.00    15.00     -30.16  -18.18  -17.92    0.00000   -75.87  LINEAR    2.40414E-02    45.75    9.54821E-02  -134.25
 -155.00    15.00     -37.57  -25.28  -25.03    0.00000   -76.35  LINEAR    1.02475E-02    37.95    4.21976E-02  -142.05
 -150.00    15.00     -38.32  -25.63  -25.41    0.00000   -76.94  LINEAR    9.39700E-03    65.48    4.04954E-02  -114.52
 -145.00    15.00     -33.42  -20.25  -20.05    0.00000   -77.62  LINEAR    1.65147E-02    51.95    7.52407E-02  -128.05
 -140.00    15.00     -30.07  -16.32  -16.14    0.00000   -78.40  LINEAR    2.43005E-02    27.26    1.18388E-01  -152.74
 -135.00    15.00     -28.22  -13.77  -13.62    0.00000   -79.27  LINEAR    3.00740E-02     5.48    1.58728E-01  -174.52
 -130.00    15.00     -27.69  -12.41  -12.28    0.00000   -80.23  LINEAR    3.19720E-02   -11.54    1.85631E-01   168.46
 -125.00    15.00     -28.31  -12.05  -11.95    0.00000   -81.26  LINEAR    2.97421E-02   -23.34    1.93521E-01   156.66
 -120.00    15.00     -29.92  -12.46  -12.39    0.00000   -82.37  LINEAR    2.47104E-02   -29.00    1.84441E-01   151.00
 -115.00    15.00     -32.20  -13.28  -13.22    0.00000   -83.54  LINEAR    1.90213E-02   -27.21    1.67973E-01   152.79
 -110.00    15.00     -34.56  -13.80  -13.76    0.00000   -84.76  LINEAR    1.44943E-02   -18.20    1.58158E-01   161.80
 -105.00    15.00     -36.66  -13.48  -13.46    0.00000   -86.03  LINEAR    1.13736E-02    -6.61    1.64001E-01   173.39
 -100.00    15.00     -39.29  -12.64  -12.63    0.00000   -87.34  LINEAR    8.40707E-03     2.04    1.80685E-01  -177.96
  -95.00    15.00     -44.55  -11.92  -11.91    0.00000   -88.66  LINEAR    4.58806E-03     6.56    1.96463E-01  -173.44
  -90.00    15.00    -999.99  -11.65  -11.65    0.00000   -90.00  LINEAR    2.77164E-13     7.90    2.02686E-01  -172.10
  -85.00    15.00     -44.55  -11.92  -11.91    0.00000    88.66  LINEAR    4.58806E-03  -173.44    1.96463E-01  -173.44
  -80.00    15.00     -39.29  -12.64  -12.63    0.00000    87.34  LINEAR    8.40707E-03  -177.96    1.80685E-01  -177.96
  -75.00    15.00     -36.66  -13.48  -13.46    0.00000    86.03  LINEAR    1.13736E-02   173.39    1.64001E-01   173.39
  -70.00    15.00     -34.56  -13.80  -13.76    0.00000    84.76  LINEAR    1.44943E-02   161.80    1.58158E-01   161.80
  -65.00    15.00     -32.20  -13.28  -13.22    0.00000    83.54  LINEAR    1.90213E-02   152.79    1.67973E-01   152.79
  -60.00    15.00     -29.92  -12.46  -12.39    0.00000    82.37  LINEAR    2.47104E-02   151.00    1.84441E-01   151.00
  -55.00    15.00     -28.31  -12.05  -11.95    0.00000    81.26  LINEAR    2.97421E-02   156.66    1.93521E-01   156.66
  -50.00    15.00     -27.69  -12.41  -12.28    0.00000    80.23  LINEAR    3.19720E-02   168.46    1.85631E-01   168.46
  -45.00    15.00     -28.22  -13.77  -13.62    0.00000    79.27  LINEAR    3.00740E-02  -174.52    1.58728E-01  -174.52
  -40.00    15.00     -30.07  -16.32  -16.14    0.00000    78.40  LINEAR    2.43005E-02  -152.74    1.18388E-01  -152.74
  -35.00    15.00     -33.42  -20.25  -20.05    0.00000    77.62  LINEAR    1.65147E-02  -128.05    7.52407E-02  -128.05
  -30.00    15.00     -38.32  -25.63  -25.41    0.00000    76.94  LINEAR    9.39700E-03  -114.52    4.04954E-02  -114.52
  -25.00    15.00     -37.57  -25.28  -25.03    0.00000    76.35  LINEAR    1.02475E-02  -142.05    4.21976E-02  -142.05
  -20.00    15.00     -30.16  -18.18  -17.92    0.00000    75.87  LINEAR    2.40414E-02  -134.25    9.54821E-02  -134.25
  -15.00    15.00     -24.95  -13.21  -12.93    0.00000    75.49  LINEAR    4.38038E-02  -108.81    1.69245E-01  -108.81
  -10.00    15.00     -21.88  -10.31  -10.01    0.00000    75.22  LINEAR    6.23982E-02   -80.51    2.36466E-01   -80.51
   -5.00    15.00     -20.81   -9.34   -9.04    0.00000    75.05  LINEAR    7.05629E-02   -50.83    2.64350E-01   -50.83
    0.00    15.00     -22.19  -10.75  -10.45    0.00000    75.00  LINEAR    6.02101E-02   -17.52    2.24707E-01   -17.52
 -180.00    20.00     -19.77  -10.99  -10.45    0.00000   -70.00  LINEAR    7.95655E-02   162.48    2.18604E-01   -17.52
 -175.00    20.00     -18.39   -9.58   -9.04    0.00000   -70.07  LINEAR    9.32072E-02   130.00    2.57063E-01   -50.00
 -170.00    20.00     -19.36  -10.44   -9.92    0.00000   -70.28  LINEAR    8.34243E-02   101.07    2.32742E-01   -78.93
 -165.00    20.00     -22.22  -13.14  -12.64    0.00000   -70.63  LINEAR    5.99803E-02    73.48    1.70608E-01  -106.52
 -160.00    20.00     -27.08  -17.76  -17.28    0.00000   -71.12  LINEAR    3.42871E-02    48.24    1.00249E-01  -131.76
 -155.00    20.00     -34.15  -24.52  -24.07    0.00000   -71.74  LINEAR    1.51911E-02    36.22    4.60518E-02  -143.78
 -150.00    20.00     -36.86  -26.83  -26.42    0.00000   -72.50  LINEAR    1.11160E-02    63.39    3.52658E-02  -116.61
 -145.00    20.00     -32.12  -21.60  -21.23    0.00000   -73.40  LINEAR    1.91995E-02    57.20    6.43961E-02  -122.80
 -140.00    20.00     -28.58  -17.49  -17.16    0.00000   -74.42  LINEAR    2.88394E-02    33.79    1.03435E-01  -146.21
 -135.00    20.00     -26.51  -14.72  -14.44    0.00000   -75.57  LINEAR    3.66095E-02    11.89    1.42247E-01  -168.11
 -130.00    20.00     -25.71  -13.09  -12.86    0.00000   -76.83  LINEAR    4.01324E-02    -5.75    1.71538E-01   174.25
 -125.00    20.00     -26.03  -12.42  -12.24    0.00000   -78.21  LINEAR    3.86904E-02   -18.75    1.85330E-01   161.25
 -120.00    20.00     -27.31  -12.51  -12.37    0.00000   -79.69  LINEAR    3.33772E-02   -26.75    1.83406E-01   153.25
 -115.00    20.00     -29.37  -13.11  -13.01    0.00000   -81.26  LINEAR    2.63328E-02   -29.07    1.71192E-01   150.93
 -110.00    20.00     -31.92  -13.82  -13.76    0.00000   -82.90  LINEAR    1.96348E-02   -25.50    1.57728E-01   154.50
 -105.00    20.00     -34.71  -14.19  -14.15    0.00000   -84.62  LINEAR    1.42471E-02   -17.79    1.51240E-01   162.21
 -100.00    20.00     -38.05  -14.07  -14.05    0.00000   -86.38  LINEAR    9.69483E-03    -9.79    1.53392E-01   170.21
  -95.00    20.00     -43.73  -13.76  -13.75    0.00000   -88.18  LINEAR    5.04095E-03    -4.51    1.58910E-01   175.49
  -90.00    20.00    -999.99  -13.61  -13.61    0.00000   -90.00  LINEAR    3.00122E-13    -2.75    1.61574E-01   177.25
  -85.00    20.00     -43.73  -13.76  -13.75    0.00000    88.18  LINEAR    5.04095E-03   175.49    1.58910E-01   175.49
  -80.00    20.00     -38.05  -14.07  -14.05    0.00000    86.38  LINEAR    9.69483E-03   170.21    1.53392E-01   170.21
  -75.00    20.00     -34.71  -14.19  -14.15    0.00000    84.62  LINEAR    1.42471E-02   162.21    1.51240E-01   162.21
  -70.00    20.00     -31.92  -13.82  -13.76    0.00000    82.90  LINEAR    1.96348E-02   154.50    1.57728E-01   154.50
  -65.00    20.00     -29.37  -13.11  -13.01    0.00000    81.26  LINEAR    2.63328E-02   150.93    1.71192E-01   150.93
  -60.00    20.00     -27.31  -12.51  -12.37    0.00000    79.69  LINEAR    3.33772E-02   153.25    1.83406E-01   153.25
  -55.00    20.00     -26.03  -12.42  -12.24    0.00000    78.21  LINEAR    3.86904E-02   161.25    1.85330E-01   161.25
  -50.00    20.00     -25.71  -13.09  -12.86    0.00000    76.83  LINEAR    4.01324E-02   174.25    1.71538E-01   174.25
  -45.00    20.00     -26.51  -14.72  -14.44    0.00000    75.57  LINEAR    3.66095E-02  -168.11    1.42247E-01  -168.11
  -40.00    20.00     -28.58  -17.49  -17.16    0.00000    74.42  LINEAR    2.88394E-02  -146.21    1.03435E-01  -146.21
  -35.00    20.00     -32.12  -21.60  -21.23    0.00000    73.40  LINEAR    1.91995E-02  -122.80    6.43961E-02  -122.80
  -30.00    20.00     -36.86  -26.83  -26.42    0.00000    72.50  LINEAR    1.11160E-02  -116.61    3.52658E-02  -116.61
  -25.00    20.00     -34.15  -24.52  -24.07    0.00000    71.74  LINEAR    1.51911E-02  -143.78    4.60518E-02  -143.78
  -20.00    20.00     -27.08  -17.76  -17.28    0.00000    71.12  LINEAR    3.42871E-02  -131.76    1.00249E-01  -131.76
  -15.00    20.00     -22.22  -13.14  -12.64    0.00000    70.63  LINEAR    5.99803E-02  -106.52    1.70608E-01  -106.52
  -10.00    20.00     -19.36  -10.44   -9.92    0.00000    70.28  LINEAR    8.34243E-02   -78.93    2.32742E-01   -78.93
   -5.00    20.00     -18.39   -9.58   -9.04    0.00000    70.07  LINEAR    9.32072E-02   -50.00    2.57063E-01   -50.00
    0.00    20.00     -19.77  -10.99  -10.45    0.00000    70.00  LINEAR    7.95655E-02   -17.52    2.18604E-01   -17.52
 -180.00    25.00     -17.93  -11.30  -10.45    0.00000   -65.00  LINEAR    9.83153E-02   162.48    2.10838E-01   -17.52
 -175.00    25.00     -16.56   -9.90   -9.05    0.00000   -65.08  LINEAR    1.15078E-01   131.08    2.47728E-01   -48.92
 -170.00    25.00     -17.40  -10.64   -9.81    0.00000   -65.33  LINEAR    1.04526E-01   103.10    2.27615E-01   -76.90
 -165.00    25.00     -20.01  -13.08  -12.28    0.00000   -65.75  LINEAR    7.73646E-02    76.41    1.71762E-01  -103.59
 -160.00    25.00     -24.44  -17.28  -16.51    0.00000   -66.34  LINEAR    4.64375E-02    51.59    1.05977E-01  -128.41
 -155.00    25.00     -30.97  -23.49  -22.78    0.00000   -67.09  LINEAR    2.18953E-02    35.86    5.18088E-02  -144.14
 -150.00    25.00     -35.85  -27.97  -27.32    0.00000   -68.01  LINEAR    1.24917E-02    57.34    3.09327E-02  -122.66
 -145.00    25.00     -31.79  -23.43  -22.84    0.00000   -69.09  LINEAR    1.99253E-02    62.92    5.21636E-02  -117.08
 -140.00    25.00     -28.05  -19.11  -18.58    0.00000   -70.34  LINEAR    3.06680E-02    42.24    8.58535E-02  -137.76
 -135.00    25.00     -25.72  -16.08  -15.63    0.00000   -71.75  LINEAR    4.00988E-02    20.50    1.21611E-01  -159.50
 -130.00    25.00     -24.61  -14.15  -13.78    0.00000   -73.31  LINEAR    4.55369E-02     2.31    1.51923E-01  -177.69
 -125.00    25.00     -24.58  -13.12  -12.82    0.00000   -75.03  LINEAR    4.57261E-02   -11.79    1.70962E-01   168.21
 -120.00    25.00     -25.47  -12.83  -12.60    0.00000   -76.88  LINEAR    4.12465E-02   -21.73    1.76907E-01   158.27
 -115.00    25.00     -27.17  -13.06  -12.90    0.00000   -78.85  LINEAR    3.39198E-02   -27.40    1.72121E-01   152.60
 -110.00    25.00     -29.55  -13.60  -13.49    0.00000   -80.94  LINEAR    2.58067E-02   -28.80    1.61811E-01   151.20
 -105.00    25.00     -32.53  -14.16  -14.10    0.00000   -83.12  LINEAR    1.83098E-02   -26.60    1.51710E-01   153.40
 -100.00    25.00     -36.36  -14.53  -14.50    0.00000   -85.37  LINEAR    1.17734E-02   -22.61    1.45398E-01   157.39
  -95.00    25.00     -42.50  -14.68  -14.67    0.00000   -87.67  LINEAR    5.80999E-03   -19.10    1.42958E-01   160.90
  -90.00    25.00    -999.99  -14.71  -14.71    0.00000   -90.00  LINEAR    3.39107E-13   -17.76    1.42496E-01   162.24
  -85.00    25.00     -42.50  -14.68  -14.67    0.00000    87.67  LINEAR    5.80999E-03   160.90    1.42958E-01   160.90
  -80.00    25.00     -36.36  -14.53  -14.50    0.00000    85.37  LINEAR    1.17734E-02   157.39    1.45398E-01   157.39
  -75.00    25.00     -32.53  -14.16  -14.10    0.00000    83.12  LINEAR    1.83098E-02   153.40    1.51710E-01   153.40
  -70.00    25.00     -29.55  -13.60  -13.49    0.00000    80.94  LINEAR    2.58067E-02   151.20    1.61811E-01   151.20
  -65.00    25.00     -27.17  -13.06  -12.90    0.00000    78.85  LINEAR    3.39198E-02   152.60    1.72121E-01   152.60
  -60.00    25.00     -25.47  -12.83  -12.60    0.00000    76.88  LINEAR    4.12465E-02   158.27    1.76907E-01   158.27
  -55.00    25.00     -24.58  -13.12  -12.82    0.00000    75.03  LINEAR    4.57261E-02   168.21    1.70962E-01   168.21
  -50.00    25.00     -24.61  -14.15  -13.78    0.00000    73.31  LINEAR    4.55369E-02  -177.69    1.51923E-01  -177.69
  -45.00    25.00     -25.72  -16.08  -15.63    0.00000    71.75  LINEAR    4.00988E-02  -159.50    1.21611E-01  -159.50
  -40.00    25.00     -28.05  -19.11  -18.58    0.00000    70.34  LINEAR    3.06680E-02  -137.76    8.58535E-02  -137.76
  -35.00    25.00     -31.79  -23.43  -22.84    0.00000    69.09  LINEAR    1.99253E-02  -117.08    5.21636E-02  -117.08
  -30.00    25.00     -35.85  -27.97  -27.32    0.00000    68.01  LINEAR    1.24917E-02  -122.66    3.09327E-02  -122.66
  -25.00    25.00     -30.97  -23.49  -22.78    0.00000    67.09  LINEAR    2.18953E-02  -144.14    5.18088E-02  -144.14
  -20.00    25.00     -24.44  -17.28  -16.51    0.00000    66.34  LINEAR    4.64375E-02  -128.41    1.05977E-01  -128.41
  -15.00    25.00     -20.01  -13.08  -12.28    0.00000    65.75  LINEAR    7.73646E-02  -103.59    1.71762E-01  -103.59
  -10.00    25.00     -17.40  -10.64   -9.81    0.00000    65.33  LINEAR    1.04526E-01   -76.90    2.27615E-01   -76.90
   -5.00    25.00     -16.56   -9.90   -9.05    0.00000    65.08  LINEAR    1.15078E-01   -48.92    2.47728E-01   -48.92
    0.00    25.00     -17.93  -11.30  -10.45    0.00000    65.00  LINEAR    9.83153E-02   -17.52    2.10838E-01   -17.52
 -180.00    30.00     -16.47  -11.70  -10.45    0.00000   -60.00  LINEAR    1.16317E-01   162.48    2.01467E-01   -17.52
 -175.00    30.00     -15.11  -10.31   -9.07    0.00000   -60.09  LINEAR    1.35957E-01   132.37    2.36384E-01   -47.63
 -170.00    30.00     -15.80  -10.90   -9.68    0.00000   -60.38  LINEAR    1.25579E-01   105.55    2.20864E-01   -74.45
 -165.00    30.00     -18.13  -13.06  -11.88    0.00000   -60.85  LINEAR    9.60659E-02    79.97    1.72261E-01  -100.03
 -160.00    30.00     -22.09  -16.78  -15.66    0.00000   -61.52  LINEAR    6.09035E-02    55.85    1.12258E-01  -124.15
 -155.00    30.00     -27.92  -22.30  -21.25    0.00000   -62.38  LINEAR    3.11085E-02    37.51    5.94517E-02  -142.49
 -150.00    30.00     -34.32  -28.30  -27.33    0.00000   -63.43  LINEAR    1.48973E-02    47.08    2.97946E-02  -132.92
 -145.00    30.00     -32.29  -25.78  -24.91    0.00000   -64.69  LINEAR    1.88233E-02    67.12    3.98008E-02  -112.88
 -140.00    30.00     -28.34  -21.25  -20.48    0.00000   -66.14  LINEAR    2.96543E-02    52.28    6.70494E-02  -127.72
 -135.00    30.00     -25.73  -17.95  -17.28    0.00000   -67.79  LINEAR    4.00490E-02    31.47    9.80997E-02  -148.53
 -130.00    30.00     -24.30  -15.69  -15.13    0.00000   -69.64  LINEAR    4.72262E-02    12.95    1.27255E-01  -167.05
 -125.00    30.00     -23.89  -14.29  -13.84    0.00000   -71.68  LINEAR    4.95007E-02    -2.02    1.49479E-01   177.98
 -120.00    30.00     -24.38  -13.58  -13.24    0.00000   -73.90  LINEAR    4.67996E-02   -13.43    1.62119E-01   166.57
 -115.00    30.00     -25.66  -13.41  -13.15    0.00000   -76.29  LINEAR    4.03829E-02   -21.42    1.65505E-01   158.58
 -110.00    30.00     -27.67  -13.58  -13.41    0.00000   -78.83  LINEAR    3.20414E-02   -26.20    1.62263E-01   153.80
 -105.00    30.00     -30.43  -13.92  -13.82    0.00000   -81.50  LINEAR    2.33105E-02   -28.23    1.55997E-01   151.77
 -100.00    30.00     -34.24  -14.27  -14.22    0.00000   -84.27  LINEAR    1.50275E-02   -28.38    1.49891E-01   151.62
  -95.00    30.00     -40.47  -14.50  -14.49    0.00000   -87.12  LINEAR    7.33814E-03   -27.78    1.45831E-01   152.22
  -90.00    30.00    -999.99  -14.59  -14.59    0.00000   -90.00  LINEAR    4.25623E-13   -27.45    1.44452E-01   152.55
  -85.00    30.00     -40.47  -14.50  -14.49    0.00000    87.12  LINEAR    7.33814E-03   152.22    1.45831E-01   152.22
  -80.00    30.00     -34.24  -14.27  -14.22    0.00000    84.27  LINEAR    1.50275E-02   151.62    1.49891E-01   151.62
  -75.00    30.00     -30.43  -13.92  -13.82    0.00000    81.50  LINEAR    2.33105E-02   151.77    1.55997E-01   151.77
  -70.00    30.00     -27.67  -13.58  -13.41    0.00000    78.83  LINEAR    3.20414E-02   153.80    1.62263E-01   153.80
  -65.00    30.00     -25.66  -13.41  -13.15    0.00000    76.29  LINEAR    4.03829E-02   158.58    1.65505E-01   158.58
  -60.00    30.00     -24.38  -13.58  -13.24    0.00000    73.90  LINEAR    4.67996E-02   166.57    1.62119E-01   166.57
  -55.00    30.00     -23.89  -14.29  -13.84    0.00000    71.68  LINEAR    4.95007E-02   177.98    1.49479E-01   177.98
  -50.00    30.00     -24.30  -15.69  -15.13    0.00000    69.64  LINEAR    4.72262E-02  -167.05    1.27255E-01  -167.05
  -45.00    30.00     -25.73  -17.95  -17.28    0.00000    67.79  LINEAR    4.00490E-02  -148.53    9.80997E-02  -148.53
  -40.00    30.00     -28.34  -21.25  -20.48    0.00000    66.14  LINEAR    2.96543E-02  -127.72    6.70494E-02  -127.72
  -35.00    30.00     -32.29  -25.78  -24.91    0.00000    64.69  LINEAR    1.88233E-02  -112.88    3.98008E-02  -112.88
  -30.00    30.00     -34.32  -28.30  -27.33    0.00000    63.43  LINEAR    1.48973E-02  -132.92    2.97946E-02  -132.92
  -25.00    30.00     -27.92  -22.30  -21.25    0.00000    62.38  LINEAR    3.11085E-02  -142.49    5.94517E-02  -142.49
  -20.00    30.00     -22.09  -16.78  -15.66    0.00000    61.52  LINEAR    6.09035E-02  -124.15    1.12258E-01  -124.15
  -15.00    30.00     -18.13  -13.06  -11.88    0.00000    60.85  LINEAR    9.60659E-02  -100.03    1.72261E-01  -100.03
  -10.00    30.00     -15.80  -10.90   -9.68    0.00000    60.38  LINEAR    1.25579E-01   -74.45    2.20864E-01   -74.45
   -5.00    30.00     -15.11  -10.31   -9.07    0.00000    60.09  LINEAR    1.35957E-01   -47.63    2.36384E-01   -47.63
    0.00    30.00     -16.47  -11.70  -10.45    0.00000    60.00  LINEAR    1.16317E-01   -17.52    2.01467E-01   -17.52
 -180.00    35.00     -15.28  -12.18  -10.45    0.00000   -55.00  LINEAR    1.33433E-01   162.48    1.90562E-01   -17.52
 -175.00    35.00     -13.94  -10.81   -9.09    0.00000   -55.10  LINEAR    1.55616E-01   133.89    2.23092E-01   -46.11
 -170.00    35.00     -14.47  -11.24   -9.55    0.00000   -55.41  LINEAR    1.46369E-01   108.41    2.12261E-01   -71.59
 -165.00    35.00     -16.49  -13.09  -11.46    0.00000   -55.93  LINEAR    1.16048E-01    84.13    1.71580E-01   -95.87
 -160.00    35.00     -19.94  -16.31  -14.74    0.00000   -56.66  LINEAR    7.79785E-02    61.00    1.18512E-01  -119.00
 -155.00    35.00     -25.00  -21.05  -19.58    0.00000   -57.60  LINEAR    4.35438E-02    41.35    6.86158E-02  -138.65
 -150.00    35.00     -31.57  -27.23  -25.87    0.00000   -58.77  LINEAR    2.04413E-02    37.84    3.37094E-02  -142.16
 -145.00    35.00     -33.30  -28.47  -27.23    0.00000   -60.16  LINEAR    1.67603E-02    65.11    2.92207E-02  -114.89
 -140.00    35.00     -29.45  -24.04  -22.94    0.00000   -61.79  LINEAR    2.60871E-02    62.71    4.86345E-02  -117.29
 -135.00    35.00     -26.54  -20.43  -19.48    0.00000   -63.66  LINEAR    3.64846E-02    44.73    7.36881E-02  -135.27
 -130.00    35.00     -24.78  -17.84  -17.04    0.00000   -65.77  LINEAR    4.46971E-02    26.44    9.93081E-02  -153.56
 -125.00    35.00     -24.00  -16.07  -15.42    0.00000   -68.12  LINEAR    4.88893E-02    10.90    1.21729E-01  -169.10
 -120.00    35.00     -24.09  -14.97  -14.47    0.00000   -70.70  LINEAR    4.83968E-02    -1.52    1.38236E-01   178.48
 -115.00    35.00     -24.95  -14.38  -14.01    0.00000   -73.52  LINEAR    4.37888E-02   -10.98    1.47975E-01   169.02
 -110.00    35.00     -26.57  -14.15  -13.91    0.00000   -76.53  LINEAR    3.63625E-02   -17.76    1.51836E-01   162.24
 -105.00    35.00     -28.99  -14.16  -14.02    0.00000   -79.73  LINEAR    2.75031E-02   -22.20    1.51760E-01   157.80
 -100.00    35.00     -32.57  -14.26  -14.20    0.00000   -83.07  LINEAR    1.82292E-02   -24.78    1.49924E-01   155.22
  -95.00    35.00     -38.66  -14.37  -14.35    0.00000   -86.51  LINEAR    9.03834E-03   -26.02    1.48104E-01   153.98
  -90.00    35.00    -999.99  -14.41  -14.41    0.00000   -90.00  LINEAR    5.26656E-13   -26.38    1.47380E-01   153.62
  -85.00    35.00     -38.66  -14.37  -14.35    0.00000    86.51  LINEAR    9.03834E-03   153.98    1.48104E-01   153.98
  -80.00    35.00     -32.57  -14.26  -14.20    0.00000    83.07  LINEAR    1.82292E-02   155.22    1.49924E-01   155.22
  -75.00    35.00     -28.99  -14.16  -14.02    0.00000    79.73  LINEAR    2.75031E-02   157.80    1.51760E-01   157.80
  -70.00    35.00     -26.57  -14.15  -13.91    0.00000    76.53  LINEAR    3.63625E-02   162.24    1.51836E-01   162.24
  -65.00    35.00     -24.95  -14.38  -14.01    0.00000    73.52  LINEAR    4.37888E-02   169.02    1.47975E-01   169.02
  -60.00    35.00     -24.09  -14.97  -14.47    0.00000    70.70  LINEAR    4.83968E-02   178.48    1.38236E-01   178.48
  -55.00    35.00     -24.00  -16.07  -15.42    0.00000    68.12  LINEAR    4.88893E-02  -169.10    1.21729E-01  -169.10
  -50.00    35.00     -24.78  -17.84  -17.04    0.00000    65.77  LINEAR    4.46971E-02  -153.56    9.93081E-02  -153.56
  -45.00    35.00     -26.54  -20.43  -19.48    0.00000    63.66  LINEAR    3.64846E-02  -135.27    7.36881E-02  -135.27
  -40.00    35.00     -29.45  -24.04  -22.94    0.00000    61.79  LINEAR    2.60871E-02  -117.29    4.86345E-02  -117.29
  -35.00    35.00     -33.30  -28.47  -27.23    0.00000    60.16  LINEAR    1.67603E-02  -114.89    2.92207E-02  -114.89
  -30.00    35.00     -31.57  -27.23  -25.87    0.00000    58.77  LINEAR    2.04413E-02  -142.16    3.37094E-02  -142.16
  -25.00    35.00     -25.00  -21.05  -19.58    0.00000    57.60  LINEAR    4.35438E-02  -138.65    6.86158E-02  -138.65
  -20.00    35.00     -19.94  -16.31  -14.74    0.00000    56.66  LINEAR    7.79785E-02  -119.00    1.18512E-01  -119.00
  -15.00    35.00     -16.49  -13.09  -11.46    0.00000    55.93  LINEAR    1.16048E-01   -95.87    1.71580E-01   -95.87
  -10.00    35.00     -14.47  -11.24   -9.55    0.00000    55.41  LINEAR    1.46369E-01   -71.59    2.12261E-01   -71.59
   -5.00    35.00     -13.94  -10.81   -9.09    0.00000    55.10  LINEAR    1.55616E-01   -46.11    2.23092E-01   -46.11
    0.00    35.00     -15.28  -12.18  -10.45    0.00000    55.00  LINEAR    1.33433E-01   -17.52    1.90562E-01   -17.52
 -180.00    40.00     -14.29  -12.76  -10.45    0.00000   -50.00  LINEAR    1.49534E-01   162.48    1.78208E-01   -17.52
 -175.00    40.00     -12.98  -11.42   -9.12    0.00000   -50.11  LINEAR    1.73818E-01   135.62    2.07939E-01   -44.38
 -170.00    40.00     -13.35  -11.69   -9.43    0.00000   -50.43  LINEAR    1.66589E-01   111.66    2.01595E-01   -68.34
 -165.00    40.00     -15.04  -13.22  -11.02    0.00000   -50.97  LINEAR    1.37092E-01    88.87    1.69143E-01   -91.13
 -160.00    40.00     -17.98  -15.91  -13.81    0.00000   -51.74  LINEAR    9.77572E-02    67.01    1.23979E-01  -112.99
 -155.00    40.00     -22.25  -19.87  -17.89    0.00000   -52.75  LINEAR    5.97744E-02    47.20    7.86006E-02  -132.80
 -150.00    40.00     -28.03  -25.26  -23.42    0.00000   -53.99  LINEAR    3.07209E-02    35.23    4.22757E-02  -144.77
 -145.00    40.00     -33.34  -30.09  -28.41    0.00000   -55.50  LINEAR    1.66681E-02    51.05    2.42498E-02  -128.95
 -140.00    40.00     -31.42  -27.58  -26.08    0.00000   -57.27  LINEAR    2.07960E-02    69.42    3.23529E-02  -110.58
 -135.00    40.00     -28.22  -23.69  -22.38    0.00000   -59.32  LINEAR    3.00555E-02    59.32    5.06554E-02  -120.68
 -130.00    40.00     -26.12  -20.76  -19.65    0.00000   -61.66  LINEAR    3.82802E-02    42.83    7.09731E-02  -137.17
 -125.00    40.00     -24.99  -18.64  -17.73    0.00000   -64.30  LINEAR    4.36077E-02    27.32    9.06062E-02  -152.68
 -120.00    40.00     -24.71  -17.16  -16.46    0.00000   -67.24  LINEAR    4.50615E-02    14.30    1.07404E-01  -165.70
 -115.00    40.00     -25.20  -16.19  -15.68    0.00000   -70.47  LINEAR    4.25848E-02     3.94    1.20086E-01  -176.06
 -110.00    40.00     -26.45  -15.61  -15.26    0.00000   -73.99  LINEAR    3.68698E-02    -3.96    1.28471E-01   176.04
 -105.00    40.00     -28.55  -15.29  -15.09    0.00000   -77.75  LINEAR    2.89373E-02    -9.66    1.33244E-01   170.34
 -100.00    40.00     -31.87  -15.14  -15.05    0.00000   -81.71  LINEAR    1.97449E-02   -13.45    1.35510E-01   166.55
  -95.00    40.00     -37.81  -15.09  -15.06    0.00000   -85.82  LINEAR    9.97211E-03   -15.58    1.36357E-01   164.42
  -90.00    40.00    -999.99  -15.08  -15.08    0.00000   -90.00  LINEAR    5.84741E-13   -16.27    1.36549E-01   163.73
  -85.00    40.00     -37.81  -15.09  -15.06    0.00000    85.82  LINEAR    9.97211E-03   164.42    1.36357E-01   164.42
  -80.00    40.00     -31.87  -15.14  -15.05    0.00000    81.71  LINEAR    1.97449E-02   166.55    1.35510E-01   166.55
  -75.00    40.00     -28.55  -15.29  -15.09    0.00000    77.75  LINEAR    2.89373E-02   170.34    1.33244E-01   170.34
  -70.00    40.00     -26.45  -15.61  -15.26    0.00000    73.99  LINEAR    3.68698E-02   176.04    1.28471E-01   176.04
  -65.00    40.00     -25.20  -16.19  -15.68    0.00000    70.47  LINEAR    4.25848E-02  -176.06    1.20086E-01  -176.06
  -60.00    40.00     -24.71  -17.16  -16.46    0.00000    67.24  LINEAR    4.50615E-02  -165.70    1.07404E-01  -165.70
  -55.00    40.00     -24.99  -18.64  -17.73    0.00000    64.30  LINEAR    4.36077E-02  -152.68    9.06062E-02  -152.68
  -50.00    40.00     -26.12  -20.76  -19.65    0.00000    61.66  LINEAR    3.82802E-02  -137.17    7.09731E-02  -137.17
  -45.00    40.00     -28.22  -23.69  -22.38    0.00000    59.32  LINEAR    3.00555E-02  -120.68    5.06554E-02  -120.68
  -40.00    40.00     -31.42  -27.58  -26.08    0.00000    57.27  LINEAR    2.07960E-02  -110.58    3.23529E-02  -110.58
  -35.00    40.00     -33.34  -30.09  -28.41    0.00000    55.50  LINEAR    1.66681E-02  -128.95    2.42498E-02  -128.95
  -30.00    40.00     -28.03  -25.26  -23.42    0.00000    53.99  LINEAR    3.07209E-02  -144.77    4.22757E-02  -144.77
[...]
  -70.00   340.00     -31.92  -13.82  -13.76    0.00000   -82.90  LINEAR    1.96348E-02   -25.50    1.57728E-01   154.50
  -65.00   340.00     -29.37  -13.11  -13.01    0.00000   -81.26  LINEAR    2.63328E-02   -29.07    1.71192E-01   150.93
  -60.00   340.00     -27.31  -12.51  -12.37    0.00000   -79.69  LINEAR    3.33772E-02   -26.75    1.83406E-01   153.25
  -55.00   340.00     -26.03  -12.42  -12.24    0.00000   -78.21  LINEAR    3.86904E-02   -18.75    1.85330E-01   161.25
  -50.00   340.00     -25.71  -13.09  -12.86    0.00000   -76.83  LINEAR    4.01324E-02    -5.75    1.71538E-01   174.25
  -45.00   340.00     -26.51  -14.72  -14.44    0.00000   -75.57  LINEAR    3.66095E-02    11.89    1.42247E-01  -168.11
  -40.00   340.00     -28.58  -17.49  -17.16    0.00000   -74.42  LINEAR    2.88394E-02    33.79    1.03435E-01  -146.21
  -35.00   340.00     -32.12  -21.60  -21.23    0.00000   -73.40  LINEAR    1.91995E-02    57.20    6.43961E-02  -122.80
  -30.00   340.00     -36.86  -26.83  -26.42    0.00000   -72.50  LINEAR    1.11160E-02    63.39    3.52658E-02  -116.61
  -25.00   340.00     -34.15  -24.52  -24.07    0.00000   -71.74  LINEAR    1.51911E-02    36.22    4.60518E-02  -143.78
  -20.00   340.00     -27.08  -17.76  -17.28    0.00000   -71.12  LINEAR    3.42871E-02    48.24    1.00249E-01  -131.76
  -15.00   340.00     -22.22  -13.14  -12.64    0.00000   -70.63  LINEAR    5.99803E-02    73.48    1.70608E-01  -106.52
  -10.00   340.00     -19.36  -10.44   -9.92    0.00000   -70.28  LINEAR    8.34243E-02   101.07    2.32742E-01   -78.93
   -5.00   340.00     -18.39   -9.58   -9.04    0.00000   -70.07  LINEAR    9.32072E-02   130.00    2.57063E-01   -50.00
    0.00   340.00     -19.77  -10.99  -10.45    0.00000   -70.00  LINEAR    7.95655E-02   162.48    2.18604E-01   -17.52
 -180.00   345.00     -22.19  -10.75  -10.45    0.00000    75.00  LINEAR    6.02101E-02   -17.52    2.24707E-01   -17.52
 -175.00   345.00     -20.81   -9.34   -9.04    0.00000    75.05  LINEAR    7.05629E-02   -50.83    2.64350E-01   -50.83
 -170.00   345.00     -21.88  -10.31  -10.01    0.00000    75.22  LINEAR    6.23982E-02   -80.51    2.36466E-01   -80.51
 -165.00   345.00     -24.95  -13.21  -12.93    0.00000    75.49  LINEAR    4.38038E-02  -108.81    1.69245E-01  -108.81
 -160.00   345.00     -30.16  -18.18  -17.92    0.00000    75.87  LINEAR    2.40414E-02  -134.25    9.54821E-02  -134.25
 -155.00   345.00     -37.57  -25.28  -25.03    0.00000    76.35  LINEAR    1.02475E-02  -142.05    4.21976E-02  -142.05
 -150.00   345.00     -38.32  -25.63  -25.41    0.00000    76.94  LINEAR    9.39700E-03  -114.52    4.04954E-02  -114.52
 -145.00   345.00     -33.42  -20.25  -20.05    0.00000    77.62  LINEAR    1.65147E-02  -128.05    7.52407E-02  -128.05
 -140.00   345.00     -30.07  -16.32  -16.14    0.00000    78.40  LINEAR    2.43005E-02  -152.74    1.18388E-01  -152.74
 -135.00   345.00     -28.22  -13.77  -13.62    0.00000    79.27  LINEAR    3.00740E-02  -174.52    1.58728E-01  -174.52
 -130.00   345.00     -27.69  -12.41  -12.28    0.00000    80.23  LINEAR    3.19720E-02   168.46    1.85631E-01   168.46
 -125.00   345.00     -28.31  -12.05  -11.95    0.00000    81.26  LINEAR    2.97421E-02   156.66    1.93521E-01   156.66
 -120.00   345.00     -29.92  -12.46  -12.39    0.00000    82.37  LINEAR    2.47104E-02   151.00    1.84441E-01   151.00
 -115.00   345.00     -32.20  -13.28  -13.22    0.00000    83.54  LINEAR    1.90213E-02   152.79    1.67973E-01   152.79
 -110.00   345.00     -34.56  -13.80  -13.76    0.00000    84.76  LINEAR    1.44943E-02   161.80    1.58158E-01   161.80
 -105.00   345.00     -36.66  -13.48  -13.46    0.00000    86.03  LINEAR    1.13736E-02   173.39    1.64001E-01   173.39
 -100.00   345.00     -39.29  -12.64  -12.63    0.00000    87.34  LINEAR    8.40707E-03  -177.96    1.80685E-01  -177.96
  -95.00   345.00     -44.55  -11.92  -11.91    0.00000    88.66  LINEAR    4.58806E-03  -173.44    1.96463E-01  -173.44
  -90.00   345.00    -999.99  -11.65  -11.65    0.00000    90.00  LINEAR    2.77164E-13  -172.10    2.02686E-01  -172.10
  -85.00   345.00     -44.55  -11.92  -11.91    0.00000   -88.66  LINEAR    4.58806E-03     6.56    1.96463E-01  -173.44
  -80.00   345.00     -39.29  -12.64  -12.63    0.00000   -87.34  LINEAR    8.40707E-03     2.04    1.80685E-01  -177.96
  -75.00   345.00     -36.66  -13.48  -13.46    0.00000   -86.03  LINEAR    1.13736E-02    -6.61    1.64001E-01   173.39
  -70.00   345.00     -34.56  -13.80  -13.76    0.00000   -84.76  LINEAR    1.44943E-02   -18.20    1.58158E-01   161.80
  -65.00   345.00     -32.20  -13.28  -13.22    0.00000   -83.54  LINEAR    1.90213E-02   -27.21    1.67973E-01   152.79
  -60.00   345.00     -29.92  -12.46  -12.39    0.00000   -82.37  LINEAR    2.47104E-02   -29.00    1.84441E-01   151.00
  -55.00   345.00     -28.31  -12.05  -11.95    0.00000   -81.26  LINEAR    2.97421E-02   -23.34    1.93521E-01   156.66
  -50.00   345.00     -27.69  -12.41  -12.28    0.00000   -80.23  LINEAR    3.19720E-02   -11.54    1.85631E-01   168.46
  -45.00   345.00     -28.22  -13.77  -13.62    0.00000   -79.27  LINEAR    3.00740E-02     5.48    1.58728E-01  -174.52
  -40.00   345.00     -30.07  -16.32  -16.14    0.00000   -78.40  LINEAR    2.43005E-02    27.26    1.18388E-01  -152.74
  -35.00   345.00     -33.42  -20.25  -20.05    0.00000   -77.62  LINEAR    1.65147E-02    51.95    7.52407E-02  -128.05
  -30.00   345.00     -38.32  -25.63  -25.41    0.00000   -76.94  LINEAR    9.39700E-03    65.48    4.04954E-02  -114.52
  -25.00   345.00     -37.57  -25.28  -25.03    0.00000   -76.35  LINEAR    1.02475E-02    37.95    4.21976E-02  -142.05
  -20.00   345.00     -30.16  -18.18  -17.92    0.00000   -75.87  LINEAR    2.40414E-02    45.75    9.54821E-02  -134.25
  -15.00   345.00     -24.95  -13.21  -12.93    0.00000   -75.49  LINEAR    4.38038E-02    71.19    1.69245E-01  -108.81
  -10.00   345.00     -21.88  -10.31  -10.01    0.00000   -75.22  LINEAR    6.23982E-02    99.49    2.36466E-01   -80.51
   -5.00   345.00     -20.81   -9.34   -9.04    0.00000   -75.05  LINEAR    7.05629E-02   129.17    2.64350E-01   -50.83
    0.00   345.00     -22.19  -10.75  -10.45    0.00000   -75.00  LINEAR    6.02101E-02   162.48    2.24707E-01   -17.52
 -180.00   350.00     -25.65  -10.58  -10.45    0.00000    80.00  LINEAR    4.03964E-02   -17.52    2.29100E-01   -17.52
 -175.00   350.00     -24.28   -9.17   -9.04    0.00000    80.04  LINEAR    4.73511E-02   -51.44    2.69567E-01   -51.44
 -170.00   350.00     -25.42  -10.21  -10.09    0.00000    80.15  LINEAR    4.14977E-02   -81.65    2.38976E-01   -81.65
 -165.00   350.00     -28.65  -13.27  -13.15    0.00000    80.33  LINEAR    2.86173E-02  -110.45    1.68022E-01  -110.45
 -160.00   350.00     -34.13  -18.51  -18.39    0.00000    80.59  LINEAR    1.52334E-02  -135.94    9.19376E-02  -135.94
 -155.00   350.00     -41.68  -25.75  -25.64    0.00000    80.92  LINEAR    6.38493E-03  -139.91    3.99541E-02  -139.91
 -150.00   350.00     -41.02  -24.70  -24.60    0.00000    81.32  LINEAR    6.88488E-03  -114.37    4.50866E-02  -114.37
 -145.00   350.00     -36.13  -19.33  -19.24    0.00000    81.78  LINEAR    1.20916E-02  -132.06    8.37146E-02  -132.06
 -140.00   350.00     -32.91  -15.52  -15.45    0.00000    82.31  LINEAR    1.75164E-02  -157.35    1.29680E-01  -157.35
 -135.00   350.00     -31.23  -13.15  -13.08    0.00000    82.89  LINEAR    2.12575E-02  -178.93    1.70494E-01  -178.93
 -130.00   350.00     -30.91  -11.99  -11.94    0.00000    83.53  LINEAR    2.20665E-02   164.61    1.94692E-01   164.61
 -125.00   350.00     -31.78  -11.87  -11.83    0.00000    84.22  LINEAR    1.99657E-02   153.97    1.97412E-01   153.97
 -120.00   350.00     -33.62  -12.52  -12.49    0.00000    84.96  LINEAR    1.61530E-02   150.63    1.83217E-01   150.63
 -115.00   350.00     -35.92  -13.36  -13.34    0.00000    85.74  LINEAR    1.23964E-02   156.40    1.66353E-01   156.40
 -110.00   350.00     -37.81  -13.41  -13.40    0.00000    86.55  LINEAR    9.97230E-03   169.35    1.65358E-01   169.35
 -105.00   350.00     -39.20  -12.39  -12.38    0.00000    87.39  LINEAR    8.49211E-03  -178.37    1.86080E-01  -178.37
 -100.00   350.00     -41.38  -11.10  -11.09    0.00000    88.25  LINEAR    6.60984E-03  -171.20    2.15875E-01  -171.20
  -95.00   350.00     -46.46  -10.19  -10.19    0.00000    89.12  LINEAR    3.68337E-03  -168.02    2.39680E-01  -168.02
  -90.00   350.00    -999.99   -9.87   -9.87    0.00000    90.00  LINEAR    2.23662E-13  -167.15    2.48549E-01  -167.15
  -85.00   350.00     -46.46  -10.19  -10.19    0.00000   -89.12  LINEAR    3.68337E-03    11.98    2.39680E-01  -168.02
  -80.00   350.00     -41.38  -11.10  -11.09    0.00000   -88.25  LINEAR    6.60984E-03     8.80    2.15875E-01  -171.20
  -75.00   350.00     -39.20  -12.39  -12.38    0.00000   -87.39  LINEAR    8.49211E-03     1.63    1.86080E-01  -178.37
  -70.00   350.00     -37.81  -13.41  -13.40    0.00000   -86.55  LINEAR    9.97230E-03   -10.65    1.65358E-01   169.35
  -65.00   350.00     -35.92  -13.36  -13.34    0.00000   -85.74  LINEAR    1.23964E-02   -23.60    1.66353E-01   156.40
  -60.00   350.00     -33.62  -12.52  -12.49    0.00000   -84.96  LINEAR    1.61530E-02   -29.37    1.83217E-01   150.63
  -55.00   350.00     -31.78  -11.87  -11.83    0.00000   -84.22  LINEAR    1.99657E-02   -26.03    1.97412E-01   153.97
  -50.00   350.00     -30.91  -11.99  -11.94    0.00000   -83.53  LINEAR    2.20665E-02   -15.39    1.94692E-01   164.61
  -45.00   350.00     -31.23  -13.15  -13.08    0.00000   -82.89  LINEAR    2.12575E-02     1.07    1.70494E-01  -178.93
  -40.00   350.00     -32.91  -15.52  -15.45    0.00000   -82.31  LINEAR    1.75164E-02    22.65    1.29680E-01  -157.35
  -35.00   350.00     -36.13  -19.33  -19.24    0.00000   -81.78  LINEAR    1.20916E-02    47.94    8.37146E-02  -132.06
  -30.00   350.00     -41.02  -24.70  -24.60    0.00000   -81.32  LINEAR    6.88488E-03    65.63    4.50866E-02  -114.37
  -25.00   350.00     -41.68  -25.75  -25.64    0.00000   -80.92  LINEAR    6.38493E-03    40.09    3.99541E-02  -139.91
  -20.00   350.00     -34.13  -18.51  -18.39    0.00000   -80.59  LINEAR    1.52334E-02    44.06    9.19376E-02  -135.94
  -15.00   350.00     -28.65  -13.27  -13.15    0.00000   -80.33  LINEAR    2.86173E-02    69.55    1.68022E-01  -110.45
  -10.00   350.00     -25.42  -10.21  -10.09    0.00000   -80.15  LINEAR    4.14977E-02    98.35    2.38976E-01   -81.65
   -5.00   350.00     -24.28   -9.17   -9.04    0.00000   -80.04  LINEAR    4.73511E-02   128.56    2.69567E-01   -51.44
    0.00   350.00     -25.65  -10.58  -10.45    0.00000   -80.00  LINEAR    4.03964E-02   162.48    2.29100E-01   -17.52
 -180.00   355.00     -31.64  -10.48  -10.45    0.00000    85.00  LINEAR    2.02754E-02   -17.52    2.31749E-01   -17.52
 -175.00   355.00     -30.26   -9.07   -9.03    0.00000    85.02  LINEAR    2.37675E-02   -51.80    2.72702E-01   -51.80
 -170.00   355.00     -31.46  -10.16  -10.13    0.00000    85.08  LINEAR    2.07145E-02   -82.34    2.40420E-01   -82.34
 -165.00   355.00     -34.78  -13.32  -13.29    0.00000    85.17  LINEAR    1.41287E-02  -111.44    1.67189E-01  -111.44
 -160.00   355.00     -40.42  -18.72  -18.69    0.00000    85.30  LINEAR    7.37970E-03  -136.91    8.97638E-02  -136.91
 -155.00   355.00     -48.00  -25.99  -25.96    0.00000    85.47  LINEAR    3.08212E-03  -138.26    3.88707E-02  -138.26
 -150.00   355.00     -46.54  -24.13  -24.10    0.00000    85.67  LINEAR    3.64843E-03  -114.74    4.81530E-02  -114.74
 -145.00   355.00     -41.68  -18.78  -18.76    0.00000    85.90  LINEAR    6.38499E-03  -134.54    8.90931E-02  -134.54
 -140.00   355.00     -38.54  -15.07  -15.05    0.00000    86.17  LINEAR    9.15954E-03  -160.08    1.36668E-01  -160.08
 -135.00   355.00     -36.97  -12.80  -12.78    0.00000    86.46  LINEAR    1.09790E-02   178.50    1.77470E-01   178.50
 -130.00   355.00     -36.78  -11.78  -11.76    0.00000    86.78  LINEAR    1.12256E-02   162.44    1.99613E-01   162.44
 -125.00   355.00     -37.80  -11.81  -11.80    0.00000    87.13  LINEAR    9.98076E-03   152.64    1.98894E-01   152.64
 -120.00   355.00     -39.77  -12.58  -12.58    0.00000    87.50  LINEAR    7.95832E-03   151.04    1.81928E-01   151.04
 -115.00   355.00     -41.98  -13.34  -13.34    0.00000    87.88  LINEAR    6.16451E-03   159.58    1.66724E-01   159.58
 -110.00   355.00     -43.44  -12.96  -12.96    0.00000    88.29  LINEAR    5.21236E-03   174.32    1.74193E-01   174.32
 -105.00   355.00     -44.42  -11.52  -11.52    0.00000    88.70  LINEAR    4.65671E-03  -174.10    2.05651E-01  -174.10
 -100.00   355.00     -46.41  -10.05  -10.05    0.00000    89.13  LINEAR    3.70152E-03  -168.25    2.43646E-01  -168.25
  -95.00   355.00     -51.44   -9.08   -9.08    0.00000    89.56  LINEAR    2.07580E-03  -165.92    2.72232E-01  -165.92
  -90.00   355.00    -999.99   -8.76   -8.76    0.00000    90.00  LINEAR    1.26205E-13  -165.33    2.82660E-01  -165.33
  -85.00   355.00     -51.44   -9.08   -9.08    0.00000   -89.56  LINEAR    2.07580E-03    14.08    2.72232E-01  -165.92
  -80.00   355.00     -46.41  -10.05  -10.05    0.00000   -89.13  LINEAR    3.70152E-03    11.75    2.43646E-01  -168.25
  -75.00   355.00     -44.42  -11.52  -11.52    0.00000   -88.70  LINEAR    4.65671E-03     5.90    2.05651E-01  -174.10
  -70.00   355.00     -43.44  -12.96  -12.96    0.00000   -88.29  LINEAR    5.21236E-03    -5.68    1.74193E-01   174.32
  -65.00   355.00     -41.98  -13.34  -13.34    0.00000   -87.88  LINEAR    6.16451E-03   -20.42    1.66724E-01   159.58
  -60.00   355.00     -39.77  -12.58  -12.58    0.00000   -87.50  LINEAR    7.95832E-03   -28.96    1.81928E-01   151.04
  -55.00   355.00     -37.80  -11.81  -11.80    0.00000   -87.13  LINEAR    9.98076E-03   -27.36    1.98894E-01   152.64
  -50.00   355.00     -36.78  -11.78  -11.76    0.00000   -86.78  LINEAR    1.12256E-02   -17.56    1.99613E-01   162.44
  -45.00   355.00     -36.97  -12.80  -12.78    0.00000   -86.46  LINEAR    1.09790E-02    -1.50    1.77470E-01   178.50
  -40.00   355.00     -38.54  -15.07  -15.05    0.00000   -86.17  LINEAR    9.15954E-03    19.92    1.36668E-01  -160.08
  -35.00   355.00     -41.68  -18.78  -18.76    0.00000   -85.90  LINEAR    6.38499E-03    45.46    8.90931E-02  -134.54
  -30.00   355.00     -46.54  -24.13  -24.10    0.00000   -85.67  LINEAR    3.64843E-03    65.26    4.81530E-02  -114.74
  -25.00   355.00     -48.00  -25.99  -25.96    0.00000   -85.47  LINEAR    3.08212E-03    41.74    3.88707E-02  -138.26
  -20.00   355.00     -40.42  -18.72  -18.69    0.00000   -85.30  LINEAR    7.37970E-03    43.09    8.97638E-02  -136.91
  -15.00   355.00     -34.78  -13.32  -13.29    0.00000   -85.17  LINEAR    1.41287E-02    68.56    1.67189E-01  -111.44
  -10.00   355.00     -31.46  -10.16  -10.13    0.00000   -85.08  LINEAR    2.07145E-02    97.66    2.40420E-01   -82.34
   -5.00   355.00     -30.26   -9.07   -9.03    0.00000   -85.02  LINEAR    2.37675E-02   128.20    2.72702E-01   -51.80
    0.00   355.00     -31.64  -10.48  -10.45    0.00000   -85.00  LINEAR    2.02754E-02   162.48    2.31749E-01   -17.52
 -180.00   360.00    -999.99  -10.45  -10.45    0.00000   -90.00  LINEAR    4.74891E-12   162.48    2.32634E-01   -17.52
 -175.00   360.00    -999.99   -9.03   -9.03    0.00000   -90.00  LINEAR    5.56691E-12   128.08    2.73747E-01   -51.92
 -170.00   360.00    -999.99  -10.15  -10.15    0.00000   -90.00  LINEAR    4.84275E-12    97.43    2.40891E-01   -82.57
 -165.00   360.00    -999.99  -13.33  -13.33    0.00000   -90.00  LINEAR    3.29084E-12    68.23    1.66895E-01  -111.77
 -160.00   360.00    -999.99  -18.79  -18.79    0.00000   -90.00  LINEAR    1.70787E-12    42.77    8.90323E-02  -137.23
 -155.00   360.00    -999.99  -26.06  -26.06    0.00000   -90.00  LINEAR    7.13393E-13    42.34    3.85596E-02  -137.66
 -150.00   360.00    -999.99  -23.94  -23.94    0.00000   -90.00  LINEAR    8.70233E-13    65.06    4.92249E-02  -114.94
 -145.00   360.00    -999.99  -18.61  -18.61    0.00000   -90.00  LINEAR    1.52061E-12    44.62    9.09351E-02  -135.38
 -140.00   360.00    -999.99  -14.92  -14.92    0.00000   -90.00  LINEAR    2.17411E-12    19.02    1.39030E-01  -160.98
 -135.00   360.00    -999.99  -12.69  -12.69    0.00000   -90.00  LINEAR    2.59496E-12    -2.35    1.79774E-01   177.65
 -130.00   360.00    -999.99  -11.71  -11.71    0.00000   -90.00  LINEAR    2.63950E-12   -18.26    2.01156E-01   161.74
 -125.00   360.00    -999.99  -11.79  -11.79    0.00000   -90.00  LINEAR    2.33288E-12   -27.74    1.99242E-01   152.26
 -120.00   360.00    -999.99  -12.61  -12.61    0.00000   -90.00  LINEAR    1.85201E-12   -28.70    1.81448E-01   151.30
 -115.00   360.00    -999.99  -13.32  -13.32    0.00000   -90.00  LINEAR    1.44262E-12   -19.19    1.67218E-01   160.81
 -110.00   360.00    -999.99  -12.77  -12.77    0.00000   -90.00  LINEAR    1.24312E-12    -4.03    1.78050E-01   175.97
 -105.00   360.00    -999.99  -11.20  -11.20    0.00000   -90.00  LINEAR    1.12685E-12     7.16    2.13279E-01  -172.84
 -100.00   360.00    -999.99   -9.68   -9.68    0.00000   -90.00  LINEAR    9.00408E-13    12.54    2.54009E-01  -167.46
  -95.00   360.00    -999.99   -8.71   -8.71    0.00000   -90.00  LINEAR    5.05589E-13    14.60    2.84172E-01  -165.40
  -90.00   360.00    -999.99   -8.38   -8.38    0.00000   -90.00  LINEAR    3.07448E-23    15.10    2.95114E-01  -164.90
  -85.00   360.00    -999.99   -8.71   -8.71    0.00000    90.00  LINEAR    5.05589E-13  -165.40    2.84172E-01  -165.40
  -80.00   360.00    -999.99   -9.68   -9.68    0.00000    90.00  LINEAR    9.00408E-13  -167.46    2.54009E-01  -167.46
  -75.00   360.00    -999.99  -11.20  -11.20    0.00000    90.00  LINEAR    1.12685E-12  -172.84    2.13279E-01  -172.84
  -70.00   360.00    -999.99  -12.77  -12.77    0.00000    90.00  LINEAR    1.24312E-12   175.97    1.78050E-01   175.97
  -65.00   360.00    -999.99  -13.32  -13.32    0.00000    90.00  LINEAR    1.44262E-12   160.81    1.67218E-01   160.81
  -60.00   360.00    -999.99  -12.61  -12.61    0.00000    90.00  LINEAR    1.85201E-12   151.30    1.81448E-01   151.30
  -55.00   360.00    -999.99  -11.79  -11.79    0.00000    90.00  LINEAR    2.33288E-12   152.26    1.99242E-01   152.26
  -50.00   360.00    -999.99  -11.71  -11.71    0.00000    90.00  LINEAR    2.63950E-12   161.74    2.01156E-01   161.74
  -45.00   360.00    -999.99  -12.69  -12.69    0.00000    90.00  LINEAR    2.59496E-12   177.65    1.79774E-01   177.65
  -40.00   360.00    -999.99  -14.92  -14.92    0.00000    90.00  LINEAR    2.17411E-12  -160.98    1.39030E-01  -160.98
  -35.00   360.00    -999.99  -18.61  -18.61    0.00000    90.00  LINEAR    1.52061E-12  -135.38    9.09351E-02  -135.38
  -30.00   360.00    -999.99  -23.94  -23.94    0.00000    90.00  LINEAR    8.70233E-13  -114.94    4.92249E-02  -114.94
  -25.00   360.00    -999.99  -26.06  -26.06    0.00000    90.00  LINEAR    7.13393E-13  -137.66    3.85596E-02  -137.66
  -20.00   360.00    -999.99  -18.79  -18.79    0.00000    90.00  LINEAR    1.70787E-12  -137.23    8.90323E-02  -137.23
  -15.00   360.00    -999.99  -13.33  -13.33    0.00000    90.00  LINEAR    3.29084E-12  -111.77    1.66895E-01  -111.77
  -10.00   360.00    -999.99  -10.15  -10.15    0.00000    90.00  LINEAR    4.84275E-12   -82.57    2.40891E-01   -82.57
   -5.00   360.00    -999.99   -9.03   -9.03    0.00000    90.00  LINEAR    5.56691E-12   -51.92    2.73747E-01   -51.92
    0.00   360.00    -999.99  -10.45  -10.45    0.00000    90.00  LINEAR    4.74891E-12   -17.52    2.32634E-01   -17.52


   AVERAGE POWER GAIN= 9.91892E-01       SOLID ANGLE USED IN AVERAGING=( 4.0000)*PI STERADIANS.








 ***** DATA CARD NO. 14   EN   0    37    73  1003 -1.80000E+02  0.00000E+00  5.00000E+00  5.00000E+00  0.00000E+00  0.00000E+00

 RUN TIME =     0.172
